56
Lattice="0.0 0.0 0.0 0.0 0.0 0.0 0.0 0.0 0.0" Properties=species:S:1:pos:R:3:Z:I:1 pbc="F F F"
C      -2.60720800       0.42036862       0.75686800        6 
C      -3.26995460      -0.20219180      -0.51645933        6 
C      -1.85752134       1.72446787       0.56399693        6 
C      -3.34519832       0.67959959      -1.75229733        6 
O      -1.50196970       2.19808675       1.78384977        8 
O      -1.57273492       2.24825467      -0.48011865        8 
O      -4.18874445       1.70829725      -1.53773591        8 
O      -2.80677966       0.45432238      -2.80634757        8 
C      -4.26940772       2.68170509      -2.59516333        6 
C      -0.51391126       3.24827183       1.83495999        6 
C      -1.57098413      -0.69190523       1.10464802        6 
C      -2.28887087      -1.95865202       1.61391491        6 
C      -2.84707012      -2.55235250       0.28392890        6 
C      -2.40826427      -1.47167822      -0.72431526        6 
O      -1.12068580      -1.07813483      -0.20515252        8 
H      -3.32116324       0.56051878       1.56836659        1 
H      -4.30333627      -0.46665078      -0.27828183        1 
H      -0.73441512      -0.35126601       1.70641569        1 
H      -1.56766153      -2.62605236       2.08624021        1 
H      -3.06621911      -1.73021545       2.34535285        1 
H      -2.37664970      -3.50801291       0.04715131        1 
H      -3.92814728      -2.70278870       0.29562425        1 
H      -2.30729318      -1.77579342      -1.76207615        1 
C       2.15916495      -0.99203714      -0.18468963        6 
C       2.53790334       0.50891755      -0.43685909        6 
C       1.80298811      -1.37314259       1.24018053        6 
C       2.43307138       1.47624480       0.73251550        6 
O       1.27315781      -2.61259780       1.43499150        8 
O       1.96840146      -0.67591463       2.20602060        8 
O       1.13384157       1.76262337       0.97762763        8 
O       3.35454865       2.01581955       1.28652278        8 
C       0.85808723       2.65314215       2.07017075        6 
C       0.95393624      -3.50303718       0.35421187        6 
C       3.49008658      -1.68872165      -0.63697245        6 
C       3.59065746      -1.64217715      -2.17831082        6 
C       3.98038184      -0.14825291      -2.40140906        6 
C       3.99151866       0.37455407      -0.95010937        6 
O       4.48362876      -0.75833387      -0.21334473        8 
H       1.32309700      -1.26707142      -0.82470394        1 
H       1.87056820       0.90273348      -1.20635660        1 
H       0.23143751      -3.04679254      -0.32176885        1 
H       3.68976867      -2.65427965      -0.17824607        1 
H       4.37529957      -2.31562289      -2.52649820        1 
H       2.65695545      -1.92374562      -2.66931932        1 
H       4.97451129      -0.06041033      -2.84129117        1 
H       3.27543439       0.39027716      -3.03740226        1 
H       4.61697105       1.23884482      -0.74894389        1 
H       0.50997783      -4.37589062       0.83044021        1 
H       1.84686803      -3.81429352      -0.19023739        1 
H      -4.98772629       3.42350522      -2.25296384        1 
H      -4.60864784       2.21532308      -3.52115525        1 
H      -3.29015682       3.13622741      -2.75132395        1 
H      -0.79440952       3.88716769       2.67324130        1 
H      -0.54518124       3.81726288       0.90564018        1 
H       1.61416446       3.44004075       2.11668989        1 
H       0.89360131       2.07543639       2.99767841        1 
