56
Lattice="0.0 0.0 0.0 0.0 0.0 0.0 0.0 0.0 0.0" Properties=species:S:1:pos:R:3:Z:I:1 pbc="F F F"
C       2.70591529      -0.69767936       0.60530706        6 
C       3.98614845       0.17276878       0.36944273        6 
C       1.90096277      -1.04920320      -0.62586847        6 
C       4.40193917       0.37994654      -1.07687224        6 
O       1.10563955      -2.10812398      -0.36518659        8 
O       1.91163683      -0.46579440      -1.68223315        8 
O       4.77137718      -0.79909627      -1.62360068        8 
O       4.47485757       1.43778735      -1.64770583        8 
C       5.06891324      -0.77239854      -3.03073721        6 
C       0.14079572      -2.46875910      -1.37874261        6 
C       1.87009882       0.27403852       1.50449818        6 
C       2.51597876       0.36417668       2.90424070        6 
C       3.74392547       1.28122356       2.61664393        6 
C       3.60551330       1.48624038       1.09502231        6 
O       2.17873275       1.54748653       0.92155871        8 
H       2.93020746      -1.62285081       1.13510950        1 
H       4.83597502      -0.31658135       0.85281689        1 
H       0.79952170       0.10171398       1.47580377        1 
H       1.82272462       0.82910358       3.60615047        1 
H       2.78915627      -0.61622495       3.29963149        1 
H       3.65604374       2.23658490       3.13615213        1 
H       4.69756336       0.82933432       2.89738659        1 
H       4.06556779       2.37599029       0.67520491        1 
C      -3.24694531       0.67079660      -0.63063678        6 
C      -3.74568061      -0.64495550       0.05578454        6 
C      -1.74401289       0.87658340      -0.65441785        6 
C      -2.69436146      -1.69791334       0.36673837        6 
O      -1.42667965       1.89491751      -1.46256752        8 
O      -0.93710878       0.24489713      -0.01377461        8 
O      -2.20097072      -2.20720535      -0.79160672        8 
O      -2.40775802      -2.10182057       1.46243455        8 
C      -1.06829734      -3.09989424      -0.70049297        6 
C      -0.01793254       2.24903651      -1.53954271        6 
C      -3.89517673       1.73009030       0.31620108        6 
C      -5.43024725       1.73800358       0.13246278        6 
C      -5.83582868       0.45652321       0.92435622        6 
C      -4.44975144      -0.08828294       1.32043102        6 
O      -3.71757600       1.12046282       1.59700718        8 
H      -3.61623863       0.77008903      -1.65133446        1 
H      -4.46120439      -1.13612999      -0.60916339        1 
H       0.54221581       1.45146424      -2.02452703        1 
H      -3.41242912       2.70420169       0.29283759        1 
H      -5.85939097       2.63674369       0.57728102        1 
H      -5.72366600       1.70856645      -0.91895292        1 
H      -6.40942068       0.70874263       1.81718641        1 
H      -6.41865167      -0.25215425       0.33254177        1 
H      -4.40617637      -0.74720882       2.18208948        1 
H       0.39386646       2.41083636      -0.54464132        1 
H       0.00887774       3.16012263      -2.13233578        1 
H       5.35422578      -1.79051432      -3.28755995        1 
H       5.88565802      -0.08010658      -3.23960971        1 
H       4.18102439      -0.46966807      -3.58796229        1 
H       0.62615689      -3.17637122      -2.05605451        1 
H      -0.14638672      -1.58497270      -1.94463876        1 
H      -1.36789184      -4.01267989      -1.21758787        1 
H      -0.86012239      -3.32552668       0.34434155        1 
