56
Lattice="0.0 0.0 0.0 0.0 0.0 0.0 0.0 0.0 0.0" Properties=species:S:1:pos:R:3:Z:I:1 pbc="F F F"
C      -2.31931072      -0.36461045       1.21423953        6 
C      -2.77507233      -1.21937148      -0.02314100        6 
C      -1.98313156       1.09256548       0.94738588        6 
C      -2.65733596      -0.53583464      -1.37604287        6 
O      -1.31910816       1.62141741       1.99568361        8 
O      -2.30791819       1.73071295      -0.02241536        8 
O      -3.85173475      -0.07679593      -1.78455085        8 
O      -1.64781782      -0.47043159      -2.03627665        8 
C      -3.84319418       0.70006164      -2.99778670        6 
C      -0.85940280       2.97726984       1.83534702        6 
C      -1.12945739      -1.21474862       1.74927144        6 
C      -1.67541474      -2.45893181       2.47795720        6 
C      -2.18115996      -3.31320090       1.27468616        6 
C      -1.78717683      -2.41404472       0.08413571        6 
O      -0.58578648      -1.77901215       0.54538495        8 
H      -3.12108219      -0.33187115       1.95823556        1 
H      -3.81209535      -1.53170781       0.09782631        1 
H      -0.36047177      -0.64884215       2.26292313        1 
H      -0.86535799      -2.96221125       3.00773693        1 
H      -2.45824552      -2.22124296       3.20056778        1 
H      -1.66106082      -4.27022796       1.21646896        1 
H      -3.25389573      -3.51405121       1.30723357        1 
H      -1.59389954      -2.92097917      -0.85787949        1 
C       2.32357373      -0.57371363       0.00271664        6 
C       1.54575182       0.21948428      -1.11274008        6 
C       2.71253986       0.23888834       1.21614019        6 
C       1.27793781       1.68114277      -0.83513880        6 
O       2.09052295      -0.23229503       2.32943012        8 
O       3.48208061       1.16627573       1.24213280        8 
O       0.66918161       1.80909078       0.37361146        8 
O       1.48478827       2.60592314      -1.57483395        8 
C       0.24172422       3.11946956       0.75795751        6 
C       2.35107826       0.49493481       3.54003017        6 
C       3.56249178      -1.04913136      -0.81776051        6 
C       3.12353498      -2.22490304      -1.71912378        6 
C       2.30211565      -1.46869456      -2.80917724        6 
C       2.45752469      -0.00600613      -2.33633742        6 
O       3.77274390       0.00852553      -1.75641116        8 
H       1.71691618      -1.41090432       0.33545911        1 
H       0.56031016      -0.23359718      -1.24841517        1 
H       2.03475734       1.53413112       3.43266290        1 
H       4.46631793      -1.20480664      -0.23243904        1 
H       3.99913787      -2.71587016      -2.14727047        1 
H       2.53871139      -2.97206625      -1.17883530        1 
H       2.73726812      -1.60000939      -3.80085095        1 
H       1.25542062      -1.77541184      -2.84803769        1 
H       2.38234241       0.76363864      -3.09882560        1 
H       3.41385078       0.47040858       3.78552048        1 
H       1.76872307      -0.00350352       4.31269495        1 
H      -4.88082647       0.97576052      -3.17188229        1 
H      -3.45600130       0.10970078      -3.82921759        1 
H      -3.22567290       1.58843728      -2.85932675        1 
H      -0.48208995       3.23597437       2.82320873        1 
H      -1.70525919       3.62197999       1.59161974        1 
H      -0.13669528       3.63929755      -0.12092859        1 
H       1.09777132       3.67306632       1.15093605        1 
