27
Lattice="0.0 0.0 0.0 0.0 0.0 0.0 0.0 0.0 0.0" Properties=species:S:1:pos:R:3:Z:I:1 pbc="F F F"
C      -0.18951051      -1.11472982      -0.14848039        6 
C      -0.77250109       0.14500411       0.09573345        6 
C       1.27491099      -1.40405029      -0.02957174        6 
C       0.04688672       1.40157967       0.13808214        6 
O       1.96875400      -0.38334941       0.50958021        8 
O       1.77623802      -2.47458780      -0.28727469        8 
O       0.71990905       1.56491725      -1.01881928        8 
O       0.02740083       2.21946239       1.02499186        8 
C       1.57770585       2.71566102      -1.09003540        6 
C       3.36956349      -0.61670267       0.73516486        6 
C      -1.00679086      -2.23286319      -0.33704517        6 
C      -2.38834246      -2.10692216      -0.28697686        6 
C      -2.95803559      -0.86610725      -0.02295366        6 
C      -2.17198502       0.27554972       0.16725556        6 
H       1.00887550       3.63243389      -0.92907809        1 
H       3.51000679      -1.47281656       1.39649332        1 
H      -4.03750956      -0.77058182       0.02748571        1 
H       2.36455058       2.64435277      -0.33644670        1 
H       2.00412604       2.69777357      -2.09056135        1 
H       3.74081654       0.29317038       1.20126346        1 
H       3.88075126      -0.80521949      -0.21017842        1 
H      -3.01994224      -2.97514149      -0.43667661        1 
H      -0.53682473      -3.19410309      -0.49977989        1 
C      -2.84417859       1.60565393       0.41608544        6 
H      -2.54424065       2.35290978      -0.32413372        1 
H      -2.57786034       2.00473751       1.39620492        1 
H      -3.92866075       1.49783180       0.36391966        1 
