27
Lattice="0.0 0.0 0.0 0.0 0.0 0.0 0.0 0.0 0.0" Properties=species:S:1:pos:R:3:Z:I:1 pbc="F F F"
C       0.57589419      -0.86673076      -0.22854339        6 
C      -0.66214196      -0.29106994       0.08123571        6 
C       1.79909445      -0.00741211      -0.34122050        6 
C      -0.73080129       1.19369181       0.28717488        6 
O       2.70364741      -0.32574749       0.59891723        8 
O       1.97764335       0.81739690      -1.20492739        8 
O      -1.51997819       1.78150386      -0.62779654        8 
O      -0.16578822       1.78729779       1.17415985        8 
C      -1.65581015       3.21237687      -0.52143146        6 
C       3.93168429       0.42916057       0.57205480        6 
C       0.68326263      -2.24507762      -0.41373082        6 
C      -0.45202837      -3.04172337      -0.31551139        6 
C      -1.68169465      -2.46724778      -0.00579153        6 
C      -1.81350043      -1.09013551       0.19304584        6 
H      -2.07280612       3.48375269       0.44962455        1 
H       4.44209004       0.29338275      -0.38273930        1 
H      -2.55935427      -3.09782657       0.08848725        1 
H      -0.68458818       3.69212349      -0.64718798        1 
H      -2.33134384       3.49711728      -1.32474704        1 
H       4.52961805       0.03346187       1.38954922        1 
H       3.72321024       1.48879606       0.72438245        1 
H      -0.37785241      -4.11242361      -0.46842926        1 
H       1.64775676      -2.68529017      -0.63508951        1 
C      -3.16194662      -0.50090913       0.53292498        6 
H      -3.54917080       0.09471609      -0.29727623        1 
H      -3.10574696       0.15433891       1.40660149        1 
H      -3.88174733      -1.29088286       0.75361750        1 
