27
Lattice="0.0 0.0 0.0 0.0 0.0 0.0 0.0 0.0 0.0" Properties=species:S:1:pos:R:3:Z:I:1 pbc="F F F"
C       0.52669993      -0.78766429       0.21671002        6 
C      -0.73332823      -0.25499013      -0.09965927        6 
C       1.75507915       0.05910394       0.09667731        6 
C      -0.93757397       1.21889455      -0.32449136        6 
O       2.77696210      -0.64985199      -0.43096329        8 
O       1.86266025       1.20981246       0.44833360        8 
O      -0.92312656       1.88418181       0.83734657        8 
O      -1.20044731       1.71625485      -1.39349460        8 
C      -1.05878358       3.31531452       0.75108291        6 
C       4.02940102       0.04874468      -0.55427691        6 
C       0.65472770      -2.15562246       0.48101141        6 
C      -0.46885361      -2.97148567       0.48317568        6 
C      -1.71430853      -2.43822426       0.16299477        6 
C      -1.86944154      -1.08284870      -0.13827824        6 
H      -0.21623178       3.73303881       0.19853060        1 
H       3.91744637       0.91693696      -1.20517861        1 
H      -2.58688619      -3.08256784       0.14773833        1 
H      -1.99245161       3.58381411       0.25463138        1 
H      -1.05178992       3.66678926       1.78000646        1 
H       4.71827523      -0.67127453      -0.99018415        1 
H       4.38145168       0.37653731       0.42516844        1 
H      -0.37353954      -4.02630426       0.71411988        1 
H       1.63449875      -2.56877523       0.67964579        1 
C      -3.23146453      -0.53391401      -0.49133632        6 
H      -3.25796924      -0.18639521      -1.52697393        1 
H      -3.49656140       0.31788533       0.14156102        1 
H      -3.99979416      -1.29830230      -0.36486373        1 
