27
Lattice="0.0 0.0 0.0 0.0 0.0 0.0 0.0 0.0 0.0" Properties=species:S:1:pos:R:3:Z:I:1 pbc="F F F"
C      -0.12964650      -1.10254251      -0.01705301        6 
C      -0.80807200       0.12272446      -0.05201803        6 
C       1.34079982      -1.22972206      -0.29680284        6 
C      -0.08375090       1.40667111      -0.34196467        6 
O       2.09459723      -0.77592075       0.71844581        8 
O       1.79137817      -1.71047484      -1.30824744        8 
O       0.63771701       1.82524203       0.71073309        8 
O      -0.16164442       2.00751833      -1.38644770        8 
C       1.40346890       3.02992581       0.51144670        6 
C       3.52084387      -0.87217413       0.53473203        6 
C      -0.84281752      -2.28960956       0.16690780        6 
C      -2.21766096      -2.25090620       0.36023931        6 
C      -2.88765168      -1.03068376       0.33314065        6 
C      -2.20497381       0.16667897       0.11085950        6 
H       2.11763184       2.89228684      -0.30190969        1 
H       3.82035713      -1.91564673       0.42546614        1 
H      -3.96248374      -1.00420433       0.47721097        1 
H       0.74554628       3.86655969       0.27246506        1 
H       1.92001058       3.20094429       1.45293185        1 
H       3.95578004      -0.44015531       1.43290924        1 
H       3.82873067      -0.31681836      -0.35229856        1 
H      -2.76933882      -3.17018909       0.52096728        1 
H      -0.31528667      -3.23581492       0.15434231        1 
C      -2.95912078       1.47234920       0.03973804        6 
H      -2.93652906       1.88116680      -0.97386636        1 
H      -2.52296690       2.22500788       0.70282997        1 
H      -4.00132372       1.33203832       0.33026430        1 
