27
Lattice="0.0 0.0 0.0 0.0 0.0 0.0 0.0 0.0 0.0" Properties=species:S:1:pos:R:3:Z:I:1 pbc="F F F"
C       0.55093787      -0.99236298      -0.22393849        6 
C      -0.61436075      -0.22249001       0.01498940        6 
C       1.95029546      -0.44521213      -0.17391374        6 
C      -0.50790824       1.24424778      -0.28569457        6 
O       2.12200236       0.36259543       0.88772417        8 
O       2.85548374      -0.83965365      -0.87019648        8 
O      -1.63294320       1.93817107      -0.01542426        8 
O       0.48355869       1.77888536      -0.72638798        8 
C      -1.59011785       3.34407306      -0.31873576        6 
C       3.42707842       0.94804913       1.02187109        6 
C       0.48514970      -2.37973556      -0.30263790        6 
C      -0.72866867      -3.03029367      -0.10844208        6 
C      -1.86195582      -2.28873897       0.18754674        6 
C      -1.84594080      -0.88642366       0.23512734        6 
H      -0.81691236       3.83802111       0.27124256        1 
H       4.19210612       0.17316845       1.09029343        1 
H      -2.80124277      -2.80128883       0.36421462        1 
H      -1.38506261       3.49962747      -1.37878145        1 
H      -2.57551752       3.72361567      -0.05690313        1 
H       3.38851499       1.53338286       1.93790047        1 
H       3.63501439       1.59104562       0.16491358        1 
H      -0.78533891      -4.11140264      -0.16725356        1 
H       1.39470547      -2.93635332      -0.48953694        1 
C      -3.16853775      -0.20421045       0.50829367        6 
H      -3.51764062       0.36163736      -0.35765320        1 
H      -3.09788923       0.50100085       1.33642201        1 
H      -3.92221003      -0.95499449       0.75209867        1 
