27
Lattice="0.0 0.0 0.0 0.0 0.0 0.0 0.0 0.0 0.0" Properties=species:S:1:pos:R:3:Z:I:1 pbc="F F F"
C       0.34816054      -1.11116646      -0.00603701        6 
C      -0.69012983      -0.16207456      -0.05803172        6 
C       1.79225708      -0.74388698      -0.20857519        6 
C      -0.29613372       1.26830503      -0.24815760        6 
O       2.29577987      -0.11624011       0.86966921        8 
O       2.42166227      -1.01537804      -1.19851707        8 
O      -1.12791042       2.12776907       0.37273664        8 
O       0.67763444       1.62962927      -0.86762076        8 
C      -0.80989324       3.52451415       0.23077462        6 
C       3.64564967       0.36771684       0.73259895        6 
C       0.06332726      -2.46496575       0.15740264        6 
C      -1.25639334      -2.88439825       0.27347416        6 
C      -2.28578898      -1.95340612       0.19887856        6 
C      -2.03502598      -0.58716761       0.03384307        6 
H       0.16607010       3.73741535       0.66921747        1 
H       4.32994853      -0.45753422       0.53055644        1 
H      -3.31489602      -2.29094581       0.25804087        1 
H      -0.80008678       3.80838595      -0.82246084        1 
H      -1.59461162       4.05430406       0.76618190        1 
H       3.88203018       0.83861756       1.68410771        1 
H       3.69670150       1.09151302      -0.08214778        1 
H      -1.48398976      -3.93641577       0.40359394        1 
H       0.87435807      -3.18281473       0.18080275        1 
C      -3.22181003       0.34355361      -0.07504582        6 
H      -3.12427435       1.03260146      -0.91577469        1 
H      -3.33342032       0.95261520       0.82420705        1 
H      -4.13624026      -0.23570143      -0.21478022        1 
