27
Lattice="0.0 0.0 0.0 0.0 0.0 0.0 0.0 0.0 0.0" Properties=species:S:1:pos:R:3:Z:I:1 pbc="F F F"
C      -0.07201956      -0.96738331      -0.14871844        6 
C      -0.87873315       0.17947411       0.01152386        6 
C       1.42512958      -0.95094391      -0.30908828        6 
C      -0.28677143       1.55113526      -0.01825891        6 
O       2.03461419      -1.01584022       0.88855506        8 
O       1.99960181      -1.00526027      -1.36735735        8 
O       1.06165054       1.52510740      -0.03668992        8 
O      -0.91126370       2.58777097      -0.04120757        8 
C       1.72675043       2.79330449      -0.14969514        6 
C       3.47261674      -1.04776577       0.85796024        6 
C      -0.64344257      -2.23803304      -0.18324492        6 
C      -2.01707897      -2.38787311      -0.04169875        6 
C      -2.81635667      -1.26589815       0.13197205        6 
C      -2.28172390       0.02635674       0.15528732        6 
H       1.38647442       3.32272348      -1.04026386        1 
H       3.82589855      -1.91721132       0.30149650        1 
H      -3.88757297      -1.38618251       0.24868659        1 
H       1.53035138       3.40544612       0.73193718        1 
H       2.78565096       2.55680484      -0.22565572        1 
H       3.78329324      -1.10459162       1.89869217        1 
H       3.85998596      -0.14116297       0.38989823        1 
H      -2.46206754      -3.37636698      -0.06463027        1 
H      -0.00897487      -3.10575052      -0.31979126        1 
C      -3.24465224       1.17555658       0.33570711        6 
H      -3.24763647       1.83547415      -0.53318613        1 
H      -2.97862406       1.80026654       1.19014480        1 
H      -4.25381380       0.78713847       0.48672198        1 
