27
Lattice="0.0 0.0 0.0 0.0 0.0 0.0 0.0 0.0 0.0" Properties=species:S:1:pos:R:3:Z:I:1 pbc="F F F"
C       0.29661542      -1.09519431       0.00810370        6 
C      -0.71507649      -0.13267117       0.13341560        6 
C       1.73804977      -0.76473878       0.28148147        6 
C      -0.32261280       1.30153410       0.32549673        6 
O       2.36864505      -0.36780027      -0.84228896        8 
O       2.25850025      -0.83154872       1.36352636        8 
O      -0.81826422       2.07772070      -0.66107520        8 
O       0.34904481       1.72582572       1.23323068        8 
C      -0.51702106       3.48307181      -0.56675817        6 
C       3.75240808       0.00814207      -0.68284042        6 
C      -0.03040888      -2.42642099      -0.24956726        6 
C      -1.36378376      -2.79988112      -0.37320356        6 
C      -2.36757826      -1.84782313      -0.22520522        6 
C      -2.06764940      -0.50426678       0.01416581        6 
H      -0.91854171       3.89800666       0.35909774        1 
H       3.83716037       0.83583690       0.02247037        1 
H      -3.40726237      -2.14869904      -0.29855278        1 
H       0.56178183       3.64260011      -0.59226347        1 
H      -0.99315343       3.93875217      -1.43189932        1 
H       4.08628669       0.30615632      -1.67398165        1 
H       4.33602788      -0.83792367      -0.31709546        1 
H      -1.62143721      -3.83446954      -0.56944063        1 
H       0.75692286      -3.16588299      -0.33631196        1 
C      -3.19074191       0.49631164       0.15447811        6 
H      -3.29810461       1.09399010      -0.75426870        1 
H      -3.01494308       1.18922846       0.98073989        1 
H      -4.13614461      -0.01604355       0.34127352        1 
