27
Lattice="0.0 0.0 0.0 0.0 0.0 0.0 0.0 0.0 0.0" Properties=species:S:1:pos:R:3:Z:I:1 pbc="F F F"
C       0.15501949      -0.93922087       0.22101547        6 
C      -0.84131790       0.01961229      -0.02037113        6 
C       1.62076717      -0.60795922       0.29517716        6 
C      -0.50021173       1.45997046      -0.27024527        6 
O       2.25841464      -1.11203611      -0.78427877        8 
O       2.17838852      -0.02807021       1.19077434        8 
O       0.14752858       2.00557640       0.76761675        8 
O      -0.79788130       2.06335156      -1.27510647        8 
C       0.57564496       3.37121478       0.61224048        6 
C       3.68766535      -0.93230170      -0.81580747        6 
C      -0.19141363      -2.28469873       0.36885309        6 
C      -1.52505699      -2.66896648       0.32038481        6 
C      -2.51187781      -1.71609831       0.08863362        6 
C      -2.19340460      -0.36999298      -0.10369715        6 
H       1.23053196       3.46708322      -0.25503416        1 
H       3.93915958       0.12924250      -0.80456111        1 
H      -3.55211771      -2.02059373       0.04622978        1 
H      -0.28587395       4.02899512       0.48705830        1 
H       1.11334102       3.60695514       1.52724841        1 
H       4.01505105      -1.39419240      -1.74432547        1 
H       4.15190592      -1.42015576       0.04288704        1 
H      -1.79567992      -3.71011584       0.45472374        1 
H       0.58545787      -3.02343139       0.52446553        1 
C      -3.29498117       0.62234112      -0.39105684        6 
H      -3.24042733       0.97737815      -1.42251202        1 
H      -3.22791675       1.50291845       0.25313978        1 
H      -4.27185187       0.16225791      -0.23289816        1 
