27
Lattice="0.0 0.0 0.0 0.0 0.0 0.0 0.0 0.0 0.0" Properties=species:S:1:pos:R:3:Z:I:1 pbc="F F F"
C       0.55273652      -0.77978960      -0.13558310        6 
C      -0.74148018      -0.28887355       0.11702070        6 
C       1.73489559       0.11218075       0.06504789        6 
C      -1.02321623       1.18010123       0.28167478        6 
O       2.88748603      -0.58956994       0.13161107        8 
O       1.69883627       1.31800394       0.14920098        8 
O      -0.86816948       1.82327600      -0.88672051        8 
O      -1.47494464       1.68270261       1.28169175        8 
C      -1.04576771       3.25045408      -0.84841546        6 
C       4.08499351       0.18472500       0.31848808        6 
C       0.73685669      -2.14276666      -0.39662612        6 
C      -0.35566794      -2.99878812      -0.43813133        6 
C      -1.63113766      -2.50796803      -0.17704588        6 
C      -1.84854544      -1.15587525       0.10343390        6 
H      -2.04001447       3.50620607      -0.47936887        1 
H       4.22018632       0.88411062      -0.50783552        1 
H      -2.48088343      -3.18207786      -0.19708461        1 
H      -0.28818746       3.69649307      -0.20235567        1 
H      -0.91720768       3.58488853      -1.87535016        1 
H       4.89516512      -0.54059393       0.34526763        1 
H       4.03550143       0.74113054       1.25559943        1 
H      -0.21332284      -4.05085866      -0.65705883        1 
H       1.73692943      -2.52004493      -0.55692887        1 
C      -3.25051075      -0.65840544       0.36708441        6 
H      -3.51281194       0.17118412      -0.29550761        1 
H      -3.35270111      -0.29378375       1.39145730        1 
H      -3.97654579      -1.45777930       0.20952222        1 
