27
Lattice="0.0 0.0 0.0 0.0 0.0 0.0 0.0 0.0 0.0" Properties=species:S:1:pos:R:3:Z:I:1 pbc="F F F"
C       0.58517635      -0.92408698       0.26639056        6 
C      -0.60340118      -0.24358979      -0.06827682        6 
C       1.94052064      -0.27497330       0.34544644        6 
C      -0.59403838       1.25486025       0.02322523        6 
O       2.34004375       0.14323607      -0.86300685        8 
O       2.64158138      -0.28562631       1.32941016        8 
O      -1.76171669       1.72842155       0.50981321        8 
O       0.33552791       1.97752204      -0.24605111        8 
C      -1.84428528       3.15604029       0.67147958        6 
C       3.61427466       0.80875374      -0.91215158        6 
C       0.58274434      -2.30799230       0.43505776        6 
C      -0.58300534      -3.03169144       0.21474940        6 
C      -1.73884660      -2.37175447      -0.18380973        6 
C      -1.78564419      -0.97921694      -0.30985232        6 
H      -1.08567947       3.50317381       1.37439115        1 
H       3.57415918       1.72450005      -0.32066703        1 
H      -2.63713688      -2.94380537      -0.39057548        1 
H      -1.70270011       3.65898924      -0.28636713        1 
H      -2.84251106       3.34346116       1.06099215        1 
H       3.77752065       1.04019769      -1.96209603        1 
H       4.40333647       0.15915385      -0.53048585        1 
H      -0.58565061      -4.10930316       0.33376866        1 
H       1.50067078      -2.80891706       0.71682834        1 
C      -3.09936680      -0.35489549      -0.72612305        6 
H      -2.96111379       0.46260301      -1.43473626        1 
H      -3.63375533       0.05262246       0.13461872        1 
H      -3.73248125      -1.11014063      -1.19608427        1 
