27
Lattice="0.0 0.0 0.0 0.0 0.0 0.0 0.0 0.0 0.0" Properties=species:S:1:pos:R:3:Z:I:1 pbc="F F F"
C       0.76587933       0.63128216      -0.17169762        6 
C      -0.59899559       0.27483758      -0.02604435        6 
C       1.89786519      -0.36884056      -0.13766897        6 
C      -1.08111751      -1.13478706      -0.25667675        6 
O       2.96525937       0.17437316       0.51205371        8 
O       1.92761808      -1.48248241      -0.58842580        8 
O      -2.04406425      -1.47423514       0.63919513        8 
O      -0.64155963      -1.91256299      -1.05926235        8 
C      -2.57462098      -2.80501542       0.51301000        6 
C       4.12623448      -0.66931535       0.59695106        6 
C       1.13090152       1.98127305      -0.17066139        6 
C       0.17053023       2.97808861      -0.07945443        6 
C      -1.16550462       2.63106859       0.05783431        6 
C      -1.57615970       1.29473563       0.07986559        6 
H      -3.04347511      -2.94082014      -0.46339190        1 
H       3.88943868      -1.59282321       1.12786940        1 
H      -1.91820926       3.40865758       0.12824758        1 
H      -1.78235862      -3.54530907       0.63318895        1 
H      -3.31221292      -2.89875011       1.30744757        1 
H       4.86472242      -0.08955270       1.14658100        1 
H       4.49412953      -0.91780741      -0.40009461        1 
H       0.46516360       4.02081323      -0.10626214        1 
H       2.17783748       2.24005209      -0.23650595        1 
C      -3.06473826       1.02648903       0.16577364        6 
H      -3.33631633       0.58595081       1.12613673        1 
H      -3.40234896       0.33349508      -0.60787720        1 
H      -3.61624928       1.96026573       0.04352566        1 
