27
Lattice="0.0 0.0 0.0 0.0 0.0 0.0 0.0 0.0 0.0" Properties=species:S:1:pos:R:3:Z:I:1 pbc="F F F"
C      -0.09894119      -1.22099710      -0.09063218        6 
C      -0.73006669       0.02026568       0.07082925        6 
C       1.37686344      -1.39174411       0.07426979        6 
C       0.08406037       1.24910729       0.35879135        6 
O       2.06770986      -0.42807870      -0.56764989        8 
O       1.89163090      -2.27075460       0.72134179        8 
O       0.11655910       2.07426914      -0.70206398        8 
O       0.60242696       1.49214916       1.42104058        8 
C       0.86869189       3.28992921      -0.53026699        6 
C       3.49372344      -0.43895192      -0.37022277        6 
C      -0.86342019      -2.37206471      -0.29641526        6 
C      -2.24623549      -2.27909258      -0.38151608        6 
C      -2.86860440      -1.04295202      -0.22506254        6 
C      -2.13006208       0.12061924       0.00469061        6 
H       0.45854331       3.88213414       0.28911280        1 
H       3.72834525      -0.28678564       0.68436328        1 
H      -3.95034639      -0.97645031      -0.27454068        1 
H       1.91399896       3.05950860      -0.31890601        1 
H       0.77711384       3.82231077      -1.47418203        1 
H       3.87510682       0.38260073      -0.97233693        1 
H       3.91620983      -1.38810158      -0.70228093        1 
H      -2.84159933      -3.16849558      -0.55371005        1 
H      -0.36312173      -3.32851749      -0.38323743        1 
C      -2.83056332       1.44634501       0.18426140        6 
H      -2.66004661       2.09808884      -0.67710664        1 
H      -2.46741128       1.97177613       1.07158622        1 
H      -3.90644447       1.30322476       0.29600554        1 
