27
Lattice="0.0 0.0 0.0 0.0 0.0 0.0 0.0 0.0 0.0" Properties=species:S:1:pos:R:3:Z:I:1 pbc="F F F"
C       0.63764844      -0.88858163       0.29362435        6 
C      -0.57642066      -0.25799278      -0.06398665        6 
C       1.98787567      -0.22417403       0.31224135        6 
C      -0.65467738       1.23581650       0.09287407        6 
O       2.24876926       0.36964833      -0.86021109        8 
O       2.80795561      -0.38426850       1.18627046        8 
O      -1.89585560       1.63042395       0.45664225        8 
O       0.25851970       2.01728156      -0.02026906        8 
C      -2.06756646       3.04101207       0.68086762        6 
C       3.52000148       1.03217935      -0.96404464        6 
C       0.68532604      -2.26979645       0.47869187        6 
C      -0.44434157      -3.04490229       0.24419217        6 
C      -1.61216760      -2.43875237      -0.19789014        6 
C      -1.71579313      -1.04937962      -0.33714825        6 
H      -1.42567502       3.37770792       1.49624176        1 
H       3.57992309       1.83742958      -0.23043653        1 
H      -2.47931239      -3.04935490      -0.42613294        1 
H      -1.82598895       3.60520875      -0.22114305        1 
H      -3.11633186       3.16405576       0.94257672        1 
H       3.55280776       1.43407161      -1.97403342        1 
H       4.33644304       0.32700415      -0.80012294        1 
H      -0.40501138      -4.12007982       0.37776281        1 
H       1.62048138      -2.72634323       0.77741655        1 
C      -3.04766346      -0.49969566      -0.80047179        6 
H      -2.93300154       0.33563497      -1.49128295        1 
H      -3.64268343      -0.14089652       0.04196506        1 
H      -3.61048217      -1.28745092      -1.30551370        1 
