27
Lattice="0.0 0.0 0.0 0.0 0.0 0.0 0.0 0.0 0.0" Properties=species:S:1:pos:R:3:Z:I:1 pbc="F F F"
C       0.15951506      -0.90801455      -0.03186823        6 
C      -0.90283770       0.01773977      -0.04872290        6 
C       1.56463882      -0.48313604      -0.32844372        6 
C      -0.62984764       1.48892050      -0.06472961        6 
O       2.45101170      -1.12190887       0.46139021        8 
O       1.88073186       0.27831993      -1.21080287        8 
O       0.42500119       1.79545996       0.71751002        8 
O      -1.30407496       2.31859344      -0.62711343        8 
C       0.85880376       3.16592387       0.68421567        6 
C       3.83917263      -0.85739140       0.18727446        6 
C      -0.09731880      -2.27195720       0.10577402        6 
C      -1.40934527      -2.72274385       0.20536025        6 
C      -2.45762628      -1.81217336       0.16997721        6 
C      -2.23412888      -0.43484871       0.04757680        6 
H       1.20448639       3.42135768      -0.31890990        1 
H       4.09072356      -1.15560546      -0.83188053        1 
H      -3.47890982      -2.16905974       0.24801037        1 
H       0.04527963       3.83330365       0.97097042        1 
H       1.67739995       3.22725748       1.39778276        1 
H       4.39435906      -1.45085706       0.91013414        1 
H       4.05613631       0.20428395       0.31331499        1 
H      -1.61343370      -3.78270841       0.30673285        1 
H       0.72848145      -2.97130349       0.11708628        1 
C      -3.42427657       0.49484849       0.04341417        6 
H      -3.54937845       0.96730745      -0.93267167        1 
H      -3.31334973       1.30531548       0.76689342        1 
H      -4.33337084      -0.05921101       0.28401792        1 
