27
Lattice="0.0 0.0 0.0 0.0 0.0 0.0 0.0 0.0 0.0" Properties=species:S:1:pos:R:3:Z:I:1 pbc="F F F"
C       0.65281381      -0.79432753      -0.09145032        6 
C      -0.67052306      -0.32285329      -0.05624542        6 
C       1.78341562       0.17920966      -0.05793567        6 
C      -1.00434552       1.12032649      -0.33224911        6 
O       2.97148634      -0.43064554       0.14890720        8 
O       1.67719430       1.37368984      -0.21091723        8 
O      -1.33582845       1.77583520       0.79420302        8 
O      -1.01803610       1.60530816      -1.43393861        8 
C      -1.64977158       3.17312648       0.63193923        6 
C       4.12290879       0.43048413       0.17101680        6 
C       0.89984633      -2.17033025      -0.01158500        6 
C      -0.15718537      -3.06581874       0.07798288        6 
C      -1.46498454      -2.59172984       0.11917294        6 
C      -1.74436326      -1.22444461       0.04779021        6 
H      -0.78921433       3.70213451       0.22085128        1 
H       4.23106365       0.94673524      -0.78408196        1 
H      -2.28904710      -3.29315771       0.19843225        1 
H      -2.50441320       3.29674799      -0.03504422        1 
H      -1.88513784       3.53453191       1.63042758        1 
H       4.97073531      -0.22691652       0.35081503        1 
H       4.03199735       1.16836785       0.96944360        1 
H       0.03579120      -4.13130161       0.12685814        1 
H       1.92130775      -2.52385974      -0.01395587        1 
C      -3.17541753      -0.73967937       0.05960734        6 
H      -3.41358849      -0.19047313      -0.85621320        1 
H      -3.35820181      -0.06794479       0.90197874        1 
H      -3.86767351      -1.57960921       0.13605479        1 
