27
Lattice="0.0 0.0 0.0 0.0 0.0 0.0 0.0 0.0 0.0" Properties=species:S:1:pos:R:3:Z:I:1 pbc="F F F"
C       0.28185317      -0.83792955       0.09563139        6 
C      -0.87260968      -0.03906653      -0.09416870        6 
C       1.63991444      -0.32553345      -0.28218426        6 
C      -0.79161757       1.45793117      -0.04260263        6 
O       2.62549869      -1.06965994       0.26832815        8 
O       1.85358336       0.61106411      -1.01329431        8 
O       0.21295621       1.86272165       0.75932301        8 
O      -1.61358390       2.22051333      -0.49662232        8 
C       0.41520563       3.28140237       0.84977581        6 
C       3.96618984      -0.70885903      -0.10579209        6 
C       0.15397702      -2.20411775       0.34665909        6 
C      -1.10670895      -2.79003053       0.40557528        6 
C      -2.23416709      -2.01724116       0.17472604        6 
C      -2.15012542      -0.63779644      -0.06774102        6 
H       0.66930158       3.68657312      -0.13119472        1 
H       4.09807704      -0.79816916      -1.18539031        1 
H      -3.21458226      -2.48039779       0.19885990        1 
H      -0.48161470       3.77543695       1.22625247        1 
H       1.24505559       3.41051441       1.54109908        1 
H       4.61112338      -1.40998046       0.41943803        1 
H       4.18444075       0.31592665       0.19793915        1 
H      -1.20516830      -3.85112354       0.60500754        1 
H       1.04524645      -2.80484596       0.46240878        1 
C      -3.44028532       0.12581267      -0.25652452        6 
H      -3.47304767       0.61806786      -1.22894735        1 
H      -3.55854006       0.91418464       0.49014609        1 
H      -4.28846496      -0.55657163      -0.17530391        1 
