27
Lattice="0.0 0.0 0.0 0.0 0.0 0.0 0.0 0.0 0.0" Properties=species:S:1:pos:R:3:Z:I:1 pbc="F F F"
C       0.39559415      -0.80586324       0.05650968        6 
C      -0.90905066      -0.25258040       0.09387183        6 
C       1.65435098      -0.07982218       0.44847875        6 
C      -1.15027028       1.21634727      -0.11501639        6 
O       2.63986143      -0.30431685      -0.45094797        8 
O       1.80445549       0.56136352       1.45545562        8 
O      -0.08500716       1.98065456       0.16318410        8 
O      -2.17018303       1.67358337      -0.58320391        8 
C      -0.21480879       3.38435793      -0.11402993        6 
C       3.92512204       0.25155962      -0.11984170        6 
C       0.56413389      -2.18383488      -0.09987671        6 
C      -0.53712424      -3.02985151      -0.15325555        6 
C      -1.81224690      -2.49869437      -0.03411657        6 
C      -2.02874471      -1.11893599       0.06211750        6 
H      -0.40618587       3.54864645      -1.17583204        1 
H       3.85833714       1.33678820      -0.03009142        1 
H      -2.67174304      -3.15997432      -0.03906093        1 
H      -1.03109452       3.81434050       0.46796708        1 
H       0.73699708       3.82043883       0.18064045        1 
H       4.58087461      -0.02606389      -0.94210744        1 
H       4.29019714      -0.16301965       0.82145479        1 
H      -0.39803190      -4.09943558      -0.26329871        1 
H       1.56647708      -2.58976113      -0.14404405        1 
C      -3.46376709      -0.64733010       0.12620063        6 
H      -3.78753702      -0.24053316      -0.83369270        1 
H      -3.60684272       0.14414762       0.86198950        1 
H      -4.11209293      -1.48703644       0.38628558        1 
