27
Lattice="0.0 0.0 0.0 0.0 0.0 0.0 0.0 0.0 0.0" Properties=species:S:1:pos:R:3:Z:I:1 pbc="F F F"
C      -0.11968623      -1.01290984      -0.12810173        6 
C      -0.84441740       0.18291785       0.00537322        6 
C       1.37258693      -1.08803079      -0.29876207        6 
C      -0.20354843       1.50668286      -0.29544595        6 
O       2.01586873      -0.83212042       0.85091550        8 
O       1.92048552      -1.45893290      -1.30941001        8 
O       0.90533940       1.72832508       0.43035018        8 
O      -0.61768208       2.27629159      -1.12991372        8 
C       1.63736563       2.92892973       0.11724950        6 
C       3.45110804      -0.92568518       0.80312394        6 
C      -0.77978477      -2.24269660      -0.07139642        6 
C      -2.14852252      -2.28623646       0.15943953        6 
C      -2.86245913      -1.10245931       0.31651825        6 
C      -2.23914155       0.14271569       0.21364084        6 
H       1.95861783       2.91556045      -0.92540117        1 
H       3.76054722      -1.93786824       0.53752951        1 
H      -3.93016434      -1.14104962       0.50323747        1 
H       1.01891098       3.81041669       0.29154583        1 
H       2.49524676       2.92328207       0.78572470        1 
H       3.78953100      -0.67097345       1.80482292        1 
H       3.85361817      -0.22480003       0.06980053        1 
H      -2.65872375      -3.24096726       0.21910775        1 
H      -0.21367630      -3.15763197      -0.19913708        1 
C      -3.06971923       1.39899755       0.32556268        6 
H      -3.15995479       1.89255704      -0.64425888        1 
H      -2.62237172       2.12228462       1.01200742        1 
H      -4.07069239       1.16067663       0.68979458        1 
