27
Lattice="0.0 0.0 0.0 0.0 0.0 0.0 0.0 0.0 0.0" Properties=species:S:1:pos:R:3:Z:I:1 pbc="F F F"
C       0.51191698      -0.99272944       0.02407135        6 
C      -0.67498950      -0.23541950       0.07723834        6 
C       1.87445122      -0.40121202       0.27368525        6 
C      -0.51710301       1.24927805       0.16709267        6 
O       2.42883076       0.04568624      -0.86735473        8 
O       2.41276470      -0.38851179       1.34990938        8 
O      -1.57669843       1.92608255      -0.32008731        8 
O       0.46587544       1.80601997       0.59998789        8 
C      -1.48146463       3.36133530      -0.27105451        6 
C       3.71216513       0.68571127      -0.72772258        6 
C       0.46601223      -2.37386431      -0.15132529        6 
C      -0.76045527      -3.01675628      -0.26366941        6 
C      -1.93522508      -2.28033034      -0.17339078        6 
C      -1.92703911      -0.89128922      -0.00797180        6 
H      -1.35082354       3.69967198       0.75767517        1 
H       3.61715114       1.56857861      -0.09400099        1 
H      -2.88991528      -2.79159776      -0.23140529        1 
H      -0.63941420       3.70712051      -0.87224139        1 
H      -2.42090094       3.72567667      -0.68092869        1 
H       4.00786704       0.96382691      -1.73680903        1 
H       4.43660540      -0.00183336      -0.28879508        1 
H      -0.80230457      -4.09124212      -0.40267435        1 
H       1.38854882      -2.94098960      -0.18537629        1 
C      -3.26549089      -0.19517923       0.09686842        6 
H      -3.48853387       0.37906609      -0.80442045        1 
H      -3.30014616       0.50313421       0.93427777        1 
H      -4.05429279      -0.93655994       0.23671639        1 
