27
Lattice="0.0 0.0 0.0 0.0 0.0 0.0 0.0 0.0 0.0" Properties=species:S:1:pos:R:3:Z:I:1 pbc="F F F"
C      -0.12839994      -1.15236583      -0.17346072        6 
C      -0.76045681       0.07991551       0.06046369        6 
C       1.32122951      -1.40211374       0.12072969        6 
C       0.00740753       1.35557272       0.26854552        6 
O       2.14468347      -0.46093255      -0.37302861        8 
O       1.70268277      -2.33565734       0.78703721        8 
O       0.53931751       1.78979254      -0.88525478        8 
O       0.03557040       1.98138852       1.30142158        8 
C       1.30433205       3.00574325      -0.81150983        6 
C       3.53833899      -0.61132692      -0.03930090        6 
C      -0.90176786      -2.28887891      -0.43466101        6 
C      -2.28249173      -2.19059581      -0.52431430        6 
C      -2.90402516      -0.96736880      -0.28767508        6 
C      -2.16455808       0.17808595       0.01383593        6 
H       0.69523641       3.82230501      -0.42149377        1 
H       3.67540720      -0.57512885       1.04231719        1 
H      -3.98524732      -0.89485189      -0.33856046        1 
H       2.17242717       2.86398331      -0.16512678        1 
H       1.61808631       3.21094168      -1.83239714        1 
H       4.04090797       0.22425593      -0.52126862        1 
H       3.91946385      -1.56032135      -0.41854771        1 
H      -2.87719969      -3.06767333      -0.75268266        1 
H      -0.40685599      -3.24511887      -0.54863532        1 
C      -2.87136121       1.48775490       0.27121084        6 
H      -2.50310839       2.27822829      -0.38945480        1 
H      -2.71292692       1.82509107       1.29801270        1 
H      -3.94424011       1.38328310       0.10326766        1 
