27
Lattice="0.0 0.0 0.0 0.0 0.0 0.0 0.0 0.0 0.0" Properties=species:S:1:pos:R:3:Z:I:1 pbc="F F F"
C       0.49309272      -1.00091234       0.19971609        6 
C      -0.62139944      -0.19180777      -0.09610452        6 
C       1.91365782      -0.52148863       0.31551620        6 
C      -0.48894052       1.30691134      -0.10733772        6 
O       2.34046073       0.05347006      -0.81370235        8 
O       2.62037278      -0.75045554       1.27040074        8 
O      -1.42413787       1.85965466       0.70056140        8 
O       0.33489265       1.96101367      -0.69495546        8 
C      -1.40931098       3.29524453       0.79176747        6 
C       3.69574378       0.53474640      -0.81221487        6 
C       0.32709282      -2.37611625       0.38029696        6 
C      -0.91886837      -2.96153218       0.19935115        6 
C      -2.00597928      -2.17113455      -0.15489022        6 
C      -1.88821190      -0.78505851      -0.28542759        6 
H      -0.45315354       3.64194913       1.18634901        1 
H       3.83988636       1.25725964      -0.00795980        1 
H      -2.97277843      -2.63267311      -0.32492488        1 
H      -1.57626666       3.74297927      -0.18934698        1 
H      -2.21883548       3.54885037       1.47271718        1 
H       3.83086476       1.00922177      -1.78111420        1 
H       4.39463522      -0.29366636      -0.68432327        1 
H      -1.03966570      -4.03196001       0.32100887        1 
H       1.18699390      -2.97729686       0.64780567        1 
C      -3.12047087       0.01204422      -0.65143036        6 
H      -2.89582382       0.81439014      -1.35678320        1 
H      -3.57078082       0.47066863       0.23177174        1 
H      -3.86368728      -0.64093754      -1.11352768        1 
