27
Lattice="0.0 0.0 0.0 0.0 0.0 0.0 0.0 0.0 0.0" Properties=species:S:1:pos:R:3:Z:I:1 pbc="F F F"
C       0.54124640      -0.72278180      -0.20514019        6 
C      -0.74770366      -0.26247973       0.13794856        6 
C       1.74644657       0.14149244       0.02871271        6 
C      -1.07302237       1.20018062       0.27142967        6 
O       2.83460945      -0.61854797       0.29693303        8 
O       1.79582809       1.34670988      -0.02311468        8 
O      -0.77120502       1.85453385      -0.85962273        8 
O      -1.69602813       1.68745441       1.18584268        8 
C      -1.00204835       3.27357736      -0.85410094        6 
C       4.06271449       0.09860393       0.51136713        6 
C       0.73142744      -2.07091355      -0.52627699        6 
C      -0.34755228      -2.94476147      -0.54965389        6 
C      -1.61073872      -2.49183761      -0.18845898        6 
C      -1.83764775      -1.15579462       0.15836255        6 
H      -2.04410486       3.49483396      -0.61926696        1 
H       4.32714183       0.67773531      -0.37484208        1 
H      -2.44793393      -3.18153046      -0.18523504        1 
H      -0.35123676       3.75024815      -0.11957051        1 
H      -0.75136336       3.60960221      -1.85760244        1 
H       4.81087272      -0.66604532       0.70871251        1 
H       3.96685253       0.77182979       1.36444474        1 
H      -0.20006704      -3.98320814      -0.82349059        1 
H       1.72848067      -2.42743837      -0.74291864        1 
C      -3.24115779      -0.71709774       0.50865837        6 
H      -3.57397447       0.11213175      -0.12133745        1 
H      -3.30206788      -0.37066198       1.54170940        1 
H      -3.93930452      -1.54518835       0.37510509        1 
