27
Lattice="0.0 0.0 0.0 0.0 0.0 0.0 0.0 0.0 0.0" Properties=species:S:1:pos:R:3:Z:I:1 pbc="F F F"
C      -0.15499185      -0.99091252      -0.16016003        6 
C      -0.85743151       0.22246708       0.00633680        6 
C       1.34254007      -1.10815169      -0.23950089        6 
C      -0.14711427       1.53628436      -0.03727082        6 
O       1.90359927      -0.92641570       0.97176138        8 
O       1.95210514      -1.43111709      -1.22765869        8 
O       1.13237580       1.40479625      -0.44467966        8 
O      -0.64129383       2.61584206       0.19765500        8 
C       1.90384069       2.61181008      -0.54485080        6 
C       3.33746065      -1.03073777       1.01685709        6 
C      -0.83771009      -2.20326376      -0.23191337        6 
C      -2.22195500      -2.22939461      -0.11323917        6 
C      -2.91872916      -1.04275591       0.06972847        6 
C      -2.27001578       0.19615212       0.12515301        6 
H       1.43233055       3.30837545      -1.23918297        1 
H       3.66114254      -2.01941776       0.68803558        1 
H      -3.99876304      -1.06777076       0.16261895        1 
H       1.99750559       3.08571086       0.43355154        1 
H       2.87668066       2.29935738      -0.91797889        1 
H       3.60778683      -0.86467014       2.05726388        1 
H       3.79144434      -0.27317016       0.37553410        1 
H      -2.75514483      -3.17218654      -0.16278419        1 
H      -0.28002889      -3.12097492      -0.37549733        1 
C      -3.12771120       1.42782437       0.29246261        6 
H      -2.99497943       2.12746905      -0.53477927        1 
H      -2.87112342       1.97734930       1.19924906        1 
H      -4.17938947       1.13923509       0.34032867        1 
