27
Lattice="0.0 0.0 0.0 0.0 0.0 0.0 0.0 0.0 0.0" Properties=species:S:1:pos:R:3:Z:I:1 pbc="F F F"
C       0.58776246      -0.80036561       0.08480682        6 
C      -0.71916817      -0.31815224      -0.09330966        6 
C       1.73901144       0.14093228      -0.02627762        6 
C      -1.00482370       1.14346599      -0.31474163        6 
O       2.92135110      -0.50659698      -0.09559692        8 
O       1.64831349       1.34730596      -0.04436939        8 
O      -1.08414234       1.79851433       0.85396060        8 
O      -1.23840788       1.63190777      -1.39226283        8 
C      -1.27885812       3.22214310       0.76113434        6 
C       4.08915118       0.32633342      -0.20203524        6 
C       0.79984312      -2.16924830       0.29014396        6 
C      -0.27990600      -3.04057285       0.33809339        6 
C      -1.57219597      -2.55547891       0.15494435        6 
C      -1.81455710      -1.19758639      -0.06687992        6 
H      -0.43899586       3.67305174       0.23077430        1 
H       4.03951843       0.93665881      -1.10490311        1 
H      -2.41264044      -3.24101618       0.18455949        1 
H      -2.20845266       3.45026020       0.23725615        1 
H      -1.31875372       3.57573145       1.78892075        1 
H       4.93003041      -0.36197595      -0.24978379        1 
H       4.17376998       0.97841257       0.66857072        1 
H      -0.11715159      -4.09856381       0.50882939        1 
H       1.80974110      -2.53587023       0.40943055        1 
C      -3.22440895      -0.69847781      -0.27743685        6 
H      -3.35504788      -0.30852928      -1.29029400        1 
H      -3.46888328       0.11022830       0.41691660        1 
H      -3.94634599      -1.50261204      -0.12561027        1 
