27
Lattice="0.0 0.0 0.0 0.0 0.0 0.0 0.0 0.0 0.0" Properties=species:S:1:pos:R:3:Z:I:1 pbc="F F F"
C       0.15558123      -0.90709186       0.03296489        6 
C      -0.90436393       0.02194705       0.05594840        6 
C       1.56227408      -0.49191198       0.33777879        6 
C      -0.62746067       1.49227258       0.06106616        6 
O       2.44592864      -1.11679548      -0.46616938        8 
O       1.88083873       0.25061127       1.23497604        8 
O       0.45084870       1.78557167      -0.69447534        8 
O      -1.31754874       2.33295883       0.58704779        8 
C       0.88157966       3.15695380      -0.67683127        6 
C       3.83508939      -0.85902879      -0.19105972        6 
C      -0.10465905      -2.26945495      -0.11140921        6 
C      -1.41788996      -2.71682230      -0.21188680        6 
C      -2.46372022      -1.80409997      -0.16972909        6 
C      -2.23714733      -0.42757385      -0.04174344        6 
H       0.07525845       3.81672206      -0.99941298        1 
H       4.05141059       0.20552655      -0.29134362        1 
H      -3.48592790      -2.15822266      -0.24795372        1 
H       1.19937950       3.43401285       0.32979895        1 
H       1.71944514       3.20547318      -1.36871166        1 
H       4.38753609      -1.43426101      -0.93057055        1 
H       4.09068854      -1.18250760       0.81937987        1 
H      -1.62455007      -3.77572532      -0.31909420        1 
H       0.71946114      -2.97075389      -0.12705496        1 
C      -3.42707502       0.50246633      -0.03618609        6 
H      -3.31968343       1.30877263      -0.76479531        1 
H      -3.54727920       0.98108748       0.93740442        1 
H      -4.33714202      -0.05339810      -0.26892078        1 
