27
Lattice="0.0 0.0 0.0 0.0 0.0 0.0 0.0 0.0 0.0" Properties=species:S:1:pos:R:3:Z:I:1 pbc="F F F"
C       0.50045780      -0.94903733       0.25959690        6 
C      -0.65935635      -0.23811867      -0.07729861        6 
C       1.82364648      -0.24883712       0.39754581        6 
C      -0.55921598       1.25275284      -0.19367934        6 
O       2.52588310      -0.33570050      -0.74083089        8 
O       2.22719272       0.26077568       1.41455077        8 
O      -1.43780437       1.87148543       0.61671325        8 
O       0.20989330       1.83788144      -0.91874416        8 
C      -1.42079469       3.31195982       0.58518495        6 
C       3.80320259       0.33152116      -0.75008943        6 
C       0.45321064      -2.33037385       0.43800332        6 
C      -0.75278396      -3.00305991       0.27337765        6 
C      -1.90017782      -2.29943690      -0.08021231        6 
C      -1.88337170      -0.91192805      -0.24721951        6 
H      -0.44397133       3.68417167       0.89637665        1 
H       3.66336390       1.40173871      -0.59262167        1 
H      -2.83200279      -2.83473524      -0.22949387        1 
H      -1.64174986       3.67358531      -0.42025002        1 
H      -2.19170393       3.62381306       1.28599678        1 
H       4.21933290       0.14053136      -1.73631774        1 
H       4.45138597      -0.07160618       0.02940046        1 
H      -0.79690577      -4.07792284       0.40775699        1 
H       1.35515814      -2.87229605       0.69608819        1 
C      -3.15755988      -0.19065545      -0.61989742        6 
H      -2.98538423       0.56809056      -1.38682027        1 
H      -3.58778187       0.31635730       0.24741821        1 
H      -3.89578154      -0.89646405      -1.00518636        1 
