27
Lattice="0.0 0.0 0.0 0.0 0.0 0.0 0.0 0.0 0.0" Properties=species:S:1:pos:R:3:Z:I:1 pbc="F F F"
C       0.73101560       0.67894013      -0.07469035        6 
C      -0.62828752       0.29422030       0.07426022        6 
C       1.85986601      -0.23533787       0.32036185        6 
C      -0.93496866      -1.16209189      -0.15524510        6 
O       2.95334341      -0.02785788      -0.44675403        8 
O       1.82034553      -1.02938534       1.22412288        8 
O      -2.24384838      -1.46612843      -0.00711959        8 
O      -0.11352754      -2.00236146      -0.43065753        8 
C      -2.59325772      -2.84609345      -0.21437457        6 
C       4.09455994      -0.84526360      -0.12902088        6 
C       1.06970296       2.01760801      -0.25180365        6 
C       0.07896063       2.99531087      -0.26032978        6 
C      -1.24091750       2.63188397      -0.05110536        6 
C      -1.63118944       1.29075170       0.09628414        6 
H      -2.33544437      -3.15964647      -1.22721635        1 
H       4.44362686      -0.63810373       0.88408577        1 
H      -2.00753954       3.39859738      -0.02581052        1 
H      -2.07039291      -3.48319253       0.50029192        1 
H      -3.66916905      -2.89570323      -0.05942479        1 
H       4.85475211      -0.57849538      -0.85987467        1 
H       3.83491856      -1.90186419      -0.20899197        1 
H       0.34187178       4.03736610      -0.40179390        1 
H       2.11276993       2.28833809      -0.34719963        1 
C      -3.11436827       1.03347217       0.25529332        6 
H      -3.32684418       0.40083780       1.11692032        1 
H      -3.53124725       0.52495107      -0.61622457        1 
H      -3.63675054       1.98358312       0.38118520        1 
