27
Lattice="0.0 0.0 0.0 0.0 0.0 0.0 0.0 0.0 0.0" Properties=species:S:1:pos:R:3:Z:I:1 pbc="F F F"
C      -0.13995886      -1.16912308       0.09726361        6 
C      -0.76682430       0.07129477      -0.07202225        6 
C       1.31661989      -1.35970878      -0.20411042        6 
C       0.03943315       1.31207978      -0.33545109        6 
O       2.10788922      -0.64658235       0.61901061        8 
O       1.72846030      -2.03572647      -1.11443796        8 
O       0.43355875       1.88618887       0.81343452        8 
O       0.25545467       1.77308270      -1.42988168        8 
C       1.21978500       3.08578741       0.68117634        6 
C       3.52098473      -0.71076120       0.34105026        6 
C      -0.90889655      -2.30963027       0.34324714        6 
C      -2.28746863      -2.20171977       0.47206004        6 
C      -2.90580990      -0.96487701       0.30424042        6 
C      -2.16423475       0.18484427       0.02505801        6 
H       2.14218331       2.87466176       0.13749531        1 
H       3.87397257      -1.74094719       0.40291401        1 
H      -3.98459308      -0.88700040       0.38848229        1 
H       0.65818184       3.85520869       0.14919072        1 
H       1.43820713       3.40068483       1.69880484        1 
H       3.99255446      -0.09614212       1.10425653        1 
H       3.72750997      -0.31899818      -0.65608942        1 
H      -2.88354870      -3.08223243       0.68317152        1 
H      -0.42129782      -3.27358255       0.42416461        1 
C      -2.85043176       1.51364432      -0.17973751        6 
H      -2.70567145       1.87533152      -1.20152925        1 
H      -2.45243984       2.27518245       0.49727787        1 
H      -3.92273876       1.42880578       0.00220218        1 
