27
Lattice="0.0 0.0 0.0 0.0 0.0 0.0 0.0 0.0 0.0" Properties=species:S:1:pos:R:3:Z:I:1 pbc="F F F"
C      -0.15810282      -1.00712125      -0.22206874        6 
C      -0.82037461       0.21306904       0.04828674        6 
C       1.33040837      -1.19221191      -0.16364181        6 
C      -0.09532773       1.51678409      -0.07046392        6 
O       1.82832251      -0.73079110       1.00112891        8 
O       1.97874966      -1.80635622      -0.97548808        8 
O       1.13014967       1.36200791      -0.61725521        8 
O      -0.56359903       2.60954992       0.15684400        8 
C       1.89011250       2.55999731      -0.83738529        6 
C       3.24696298      -0.88036557       1.17634489        6 
C      -0.87997089      -2.18407129      -0.39927901        6 
C      -2.26455307      -2.17609794      -0.26651837        6 
C      -2.91630916      -0.99446533       0.05558518        6 
C      -2.22753695       0.21733991       0.20280256        6 
H       1.34448212       3.24454279      -1.48822033        1 
H       3.53197344      -1.93250056       1.12880934        1 
H      -3.99368664      -0.99610937       0.17859160        1 
H       2.10203841       3.05689638       0.11095388        1 
H       2.81126138       2.23126959      -1.31363005        1 
H       3.46213450      -0.46809874       2.15960041        1 
H       3.78396762      -0.32902770       0.40205868        1 
H      -2.83003932      -3.09175066      -0.39878992        1 
H      -0.34664401      -3.10101742      -0.61707707        1 
C      -3.04159797       1.45406290       0.49989662        6 
H      -2.97235367       2.18520670      -0.30813446        1 
H      -2.68960293       1.96057948       1.39906790        1 
H      -4.08988980       1.18081317       0.63490742        1 
