27
Lattice="0.0 0.0 0.0 0.0 0.0 0.0 0.0 0.0 0.0" Properties=species:S:1:pos:R:3:Z:I:1 pbc="F F F"
C       0.55713461      -0.94245029      -0.02171497        6 
C      -0.67160801      -0.25152189      -0.06259518        6 
C       1.88328329      -0.27769557      -0.28598586        6 
C      -0.58913248       1.24161422      -0.10291386        6 
O       2.49314353       0.07550301       0.85849288        8 
O       2.35917724      -0.15431971      -1.38484887        8 
O      -1.74206427       1.85474737       0.23272441        8 
O       0.41343897       1.85972540      -0.38145989        8 
C      -1.71537955       3.29337797       0.22214246        6 
C       3.74878170       0.76541186       0.70519314        6 
C       0.59063973      -2.32602256       0.13340122        6 
C      -0.59677009      -3.04051745       0.23205760        6 
C      -1.81133495      -2.37151607       0.15070242        6 
C      -1.88447490      -0.98143282       0.00914994        6 
H      -0.98609478       3.66571634       0.94297510        1 
H       4.46934227       0.13668849       0.17984909        1 
H      -2.73488701      -2.93774063       0.20057576        1 
H      -1.45879653       3.66257370      -0.77169371        1 
H      -2.72142481       3.60057910       0.49968496        1 
H       4.08809318       0.97664065       1.71670730        1 
H       3.59638314       1.68973915       0.14620932        1 
H      -0.57667603      -4.11766440       0.35449175        1 
H       1.54431075      -2.83954544       0.16037694        1 
C      -3.26504495      -0.36980530      -0.07624216        6 
H      -3.35625410       0.31781147      -0.91771371        1 
H      -3.50722662       0.19847188       0.82382617        1 
H      -4.00881023      -1.15984869      -0.19510013        1 
