27
Lattice="0.0 0.0 0.0 0.0 0.0 0.0 0.0 0.0 0.0" Properties=species:S:1:pos:R:3:Z:I:1 pbc="F F F"
C       0.28224081      -0.94426988       0.18067899        6 
C      -0.83177764      -0.10295038       0.05432655        6 
C       1.65172117      -0.35810857       0.29768858        6 
C      -0.69131902       1.38060997       0.25797209        6 
O       2.52938650      -1.00813247      -0.49493348        8 
O       1.96392751       0.54202337       1.04055417        8 
O      -0.18663549       1.97933049      -0.83734632        8 
O      -0.97134793       1.95334776       1.27897370        8 
C       0.10951445       3.38441454      -0.70167117        6 
C       3.89878035      -0.57266091      -0.40283680        6 
C       0.12245714      -2.33055809       0.09476526        6 
C      -1.14583936      -2.87216111      -0.07090747        6 
C      -2.24994777      -2.03186142      -0.19140913        6 
C      -2.11613895      -0.64302177      -0.12600975        6 
H      -0.79814873       3.94656550      -0.47756576        1 
H       3.98150156       0.48013095      -0.67588388        1 
H      -3.23671412      -2.45902824      -0.33583711        1 
H       0.83644247       3.53292441       0.09785032        1 
H       0.52158074       3.68601770      -1.66193489        1 
H       4.44718460      -1.19620897      -1.10523267        1 
H       4.27377171      -0.71152863       0.61233457        1 
H      -1.27497651      -3.94731906      -0.11986126        1 
H       0.99211930      -2.97149932       0.15779432        1 
C      -3.32761283       0.25115808      -0.23618421        6 
H      -3.18173958       1.03038200      -0.98952287        1 
H      -3.52992896       0.75116331       0.71498421        1 
H      -4.21178593      -0.32458112      -0.51453201        1 
