27
Lattice="0.0 0.0 0.0 0.0 0.0 0.0 0.0 0.0 0.0" Properties=species:S:1:pos:R:3:Z:I:1 pbc="F F F"
C       0.25853786      -0.84183556       0.08571512        6 
C      -0.88158235      -0.01880690      -0.09237434        6 
C       1.62782349      -0.36492477      -0.30016161        6 
C      -0.77214215       1.47537031      -0.02132805        6 
O       2.59580642      -1.07412367       0.32266134        8 
O       1.86022938       0.51100489      -1.09702807        8 
O       0.30597512       1.85519811       0.69243643        8 
O      -1.61848161       2.25895349      -0.38745611        8 
C       0.52510176       3.26975436       0.80174164        6 
C       3.94662026      -0.75568767      -0.05387654        6 
C       0.10709843      -2.20620307       0.33078259        6 
C      -1.16349693      -2.77101089       0.38757896        6 
C      -2.27701309      -1.97700477       0.16365939        6 
C      -2.16963718      -0.59684596      -0.06667783        6 
H       0.67427028       3.70501551      -0.18775868        1 
H       4.09715889      -0.93132406      -1.12037674        1 
H      -3.26542901      -2.42281524       0.18456146        1 
H      -0.32358029       3.75426152       1.28695639        1 
H       1.42483787       3.37602720       1.40378620        1 
H       4.57505109      -1.41853215       0.53703295        1 
H       4.17008605       0.28797050       0.17181779        1 
H      -1.27993914      -3.83149913       0.58054735        1 
H       0.98816826      -2.82282671       0.44241249        1 
C      -3.44992176       0.18554401      -0.24471793        6 
H      -3.47318443       0.70046043      -1.20559799        1 
H      -3.56248879       0.95842234       0.51860549        1 
H      -4.30546989      -0.48979894      -0.18302523        1 
