27
Lattice="0.0 0.0 0.0 0.0 0.0 0.0 0.0 0.0 0.0" Properties=species:S:1:pos:R:3:Z:I:1 pbc="F F F"
C       0.01450301      -0.96439741      -0.16145466        6 
C      -0.90188779       0.08257877       0.01035067        6 
C       1.47589547      -0.68980006      -0.36345186        6 
C      -0.43381101       1.49579716      -0.14975098        6 
O       2.19576379      -1.10784582       0.69264225        8 
O       1.95741087      -0.23146501      -1.37109482        8 
O       0.60636792       1.76086966       0.66734733        8 
O      -0.88093343       2.28348600      -0.94592149        8 
C       1.27114177       3.02114027       0.45463564        6 
C       3.62323588      -0.94968466       0.58282661        6 
C      -0.41763986      -2.29015578      -0.12880761        6 
C      -1.76732144      -2.56915382       0.05283201        6 
C      -2.67747325      -1.52879304       0.21825994        6 
C      -2.27097166      -0.19250624       0.18652836        6 
H       1.71417698       3.04086507      -0.54243072        1 
H       4.00520814      -1.51293207      -0.27003231        1 
H      -3.72729911      -1.75466070       0.37154584        1 
H       0.56782272       3.84802007       0.55746834        1 
H       2.04203494       3.07344086       1.22007888        1 
H       4.02848817      -1.33827557       1.51415732        1 
H       3.87940620       0.10377336       0.46115793        1 
H      -2.11037390      -3.59743319       0.07310733        1 
H       0.29967507      -3.09342606      -0.24521749        1 
C      -3.29128703       0.90898069       0.33986984        6 
H      -3.44284771       1.43220261      -0.60728110        1 
H      -2.97413147       1.65766116       1.07023680        1 
H      -4.24875473       0.50033196       0.66753426        1 
