27
Lattice="0.0 0.0 0.0 0.0 0.0 0.0 0.0 0.0 0.0" Properties=species:S:1:pos:R:3:Z:I:1 pbc="F F F"
C       0.67892053      -0.75414587       0.17863592        6 
C      -0.63562702      -0.26304561       0.06761386        6 
C       1.86827915       0.16048462       0.21114241        6 
C      -0.97162325       1.18501244       0.30473783        6 
O       2.87636593      -0.35735127      -0.53514034        8 
O       1.97092252       1.19308393       0.82245562        8 
O      -1.53631611       1.73560558      -0.79469097        8 
O      -0.76796326       1.78710510       1.32415741        8 
C      -1.93711454       3.11343921      -0.66746684        6 
C       4.10411024       0.39199721      -0.52912304        6 
C       0.91061568      -2.13223753       0.10453170        6 
C      -0.15018902      -3.01846437      -0.02135591        6 
C      -1.44764817      -2.53031251      -0.12598571        6 
C      -1.71345753      -1.15923542      -0.08635221        6 
H      -2.68596091       3.22100494       0.11931331        1 
H       3.94078982       1.39624255      -0.92276177        1 
H      -2.27609314      -3.22295627      -0.23031221        1 
H      -1.07598723       3.73933882      -0.42980431        1 
H      -2.35528764       3.38340004      -1.63462043        1 
H       4.78455988      -0.16505003      -1.16951169        1 
H       4.50117423       0.46599273       0.48474708        1 
H       0.03355694      -4.08635684      -0.05014076        1 
H       1.92725529      -2.49852315       0.14486584        1 
C      -3.14541352      -0.68223833      -0.18099006        6 
H      -3.33481565      -0.18609034      -1.13573220        1 
H      -3.38735814       0.03253810       0.61027760        1 
H      -3.83295807      -1.52479251      -0.09012114        1 
