27
Lattice="0.0 0.0 0.0 0.0 0.0 0.0 0.0 0.0 0.0" Properties=species:S:1:pos:R:3:Z:I:1 pbc="F F F"
C      -0.05491770      -0.94358773       0.09109385        6 
C      -0.90589834       0.18309236       0.07462162        6 
C       1.42845098      -0.89692109       0.34944308        6 
C      -0.35175388       1.56863421      -0.03194993        6 
O       2.12238049      -1.10249028      -0.78717951        8 
O       1.92895592      -0.77609052       1.43745131        8 
O       0.96673265       1.61615845       0.23689880        8 
O      -0.97798966       2.54703733      -0.37260278        8 
C       1.60805186       2.89293692       0.09203941        6 
C       3.55528838      -1.13383520      -0.64966224        6 
C      -0.58471095      -2.23022552       0.00054766        6 
C      -1.95913573      -2.41701445      -0.07611151        6 
C      -2.80366468      -1.31529812      -0.05095074        6 
C      -2.30921300      -0.00847706       0.00985692        6 
H       1.53000363       3.24420489      -0.93816275        1 
H       3.91878270      -0.17978636      -0.26462161        1 
H      -3.87717055      -1.46246492      -0.09103115        1 
H       1.15184075       3.62632030       0.75812362        1 
H       2.64714390       2.72336803       0.36531038        1 
H       3.93833904      -1.31501449      -1.65137228        1 
H       3.85690437      -1.93313216       0.02911561        1 
H      -2.36978762      -3.41829340      -0.14262216        1 
H       0.08313157      -3.08351297       0.00527688        1 
C      -3.31407803       1.11972895       0.00662847        6 
H      -3.27059353       1.68717857      -0.92447835        1 
H      -3.12814867       1.83365507       0.81004107        1 
H      -4.32065831       0.71319944       0.12474361        1 
