27
Lattice="0.0 0.0 0.0 0.0 0.0 0.0 0.0 0.0 0.0" Properties=species:S:1:pos:R:3:Z:I:1 pbc="F F F"
C      -0.12541673      -1.21238273       0.13007583        6 
C      -0.73487339       0.03362971      -0.06686951        6 
C       1.34199807      -1.41233911      -0.07845122        6 
C       0.10002508       1.25278154      -0.33939586        6 
O       2.07474237      -0.48487840       0.56975135        8 
O       1.81459325      -2.27042385      -0.78299313        8 
O       0.21937424       2.01486729       0.76094316        8 
O       0.55399059       1.54591143      -1.41853256        8 
C       0.99207181       3.22065537       0.61029430        6 
C       3.49222044      -0.51395721       0.31465799        6 
C      -0.91137664      -2.34585636       0.35459245        6 
C      -2.29262783      -2.22704432       0.42911791        6 
C      -2.89336762      -0.98519414       0.23478501        6 
C      -2.13333631       0.15942134      -0.01672579        6 
H       2.01627285       2.97904838       0.32199307        1 
H       3.90771619      -1.48532014       0.58521231        1 
H      -3.97418180      -0.89941451       0.27375296        1 
H       0.54851669       3.86714261      -0.14847858        1 
H       0.97182276       3.70018740       1.58611017        1 
H       3.91380842       0.27153467       0.93762092        1 
H       3.68721594      -0.31750446      -0.74075565        1 
H      -2.90414631      -3.10185268       0.61853402        1 
H      -0.43025068      -3.31037285       0.45985942        1 
C      -2.80517867       1.49374217      -0.23546565        6 
H      -2.46131889       1.96360192      -1.16095065        1 
H      -2.58569930       2.18230368       0.58560522        1 
H      -3.88793869       1.37655417      -0.29949623        1 
