27
Lattice="0.0 0.0 0.0 0.0 0.0 0.0 0.0 0.0 0.0" Properties=species:S:1:pos:R:3:Z:I:1 pbc="F F F"
C       0.64323090      -0.83368618      -0.13585854        6 
C      -0.65170561      -0.30766813       0.02165209        6 
C       1.82730129       0.06421292      -0.35096860        6 
C      -0.76845882       1.17385707       0.20151943        6 
O       2.76048653      -0.12039717       0.59776719        8 
O       1.95691860       0.79614166      -1.30111708        8 
O      -1.87401185       1.68562200      -0.37101581        8 
O       0.04972659       1.84771101       0.78275675        8 
C      -2.04504954       3.11054305      -0.24887404        6 
C       3.94843867       0.68448028       0.46871384        6 
C       0.84610330      -2.20965194      -0.20663992        6 
C      -0.24297748      -3.07145809      -0.12998209        6 
C      -1.52306133      -2.55567573       0.03154308        6 
C      -1.75851382      -1.17823245       0.11462259        6 
H      -2.08354344       3.40186965       0.80179439        1 
H       4.44879170       0.47864747      -0.47889262        1 
H      -2.36609284      -3.23371966       0.10782049        1 
H      -1.22104769       3.63214175      -0.73734537        1 
H      -2.98760658       3.33032995      -0.74523774        1 
H       4.58002784       0.40272598       1.30804321        1 
H       3.68907932       1.74272163       0.51877114        1 
H      -0.09370874      -4.14367757      -0.18883963        1 
H       1.84957599      -2.59843240      -0.32737729        1 
C      -3.17851613      -0.70628717       0.33044534        6 
H      -3.56688309      -0.20383665      -0.55755388        1 
H      -3.25129676       0.00580923       1.15520110        1 
H      -3.82489098      -1.55576909       0.55837817        1 
