27
Lattice="0.0 0.0 0.0 0.0 0.0 0.0 0.0 0.0 0.0" Properties=species:S:1:pos:R:3:Z:I:1 pbc="F F F"
C       0.34616396      -0.81334832      -0.11879382        6 
C      -0.85272111      -0.09444545       0.11487124        6 
C       1.67272522      -0.22072778       0.25589107        6 
C      -0.87700027       1.40624369       0.07704685        6 
O       2.70189467      -0.98374612      -0.17913823        8 
O       1.83580997       0.79932140       0.88080887        8 
O       0.02428858       1.87978805      -0.80507744        8 
O      -1.71404879       2.10665293       0.59851972        8 
C       0.11634438       3.30905034      -0.90565118        6 
C       4.01625360      -0.52579929       0.18040636        6 
C       0.29625488      -2.17988953      -0.39816414        6 
C      -0.92677689      -2.84043383      -0.45247388        6 
C      -2.09486079      -2.14578548      -0.17905821        6 
C      -2.09082487      -0.77052211       0.09877726        6 
H      -0.84043306       3.73722904      -1.20864003        1 
H       4.20345235       0.46279776      -0.24123687        1 
H      -3.04482814      -2.66895243      -0.19759730        1 
H       0.41739505       3.73303725       0.05382030        1 
H       0.87769918       3.49615063      -1.65966114        1 
H       4.70213672      -1.25829754      -0.23967713        1 
H       4.12060216      -0.47811685       1.26550381        1 
H      -0.96366853      -3.90010902      -0.67841189        1 
H       1.21956738      -2.72350939      -0.53989482        1 
C      -3.42056220      -0.09207389       0.33344562        6 
H      -3.60070306       0.71049567      -0.38538594        1 
H      -3.46381462       0.36682679       1.32163516        1 
H      -4.22842274      -0.82077965       0.24555172        1 
