27
Lattice="0.0 0.0 0.0 0.0 0.0 0.0 0.0 0.0 0.0" Properties=species:S:1:pos:R:3:Z:I:1 pbc="F F F"
C       0.28169394      -0.79661456      -0.14886486        6 
C      -0.86198893       0.01387378       0.10262296        6 
C       1.65597208      -0.38133286       0.30111921        6 
C      -0.79964763       1.51098200      -0.03420966        6 
O       2.61609069      -1.15978345      -0.25484239        8 
O       1.90595235       0.50973722       1.07331395        8 
O       0.36692505       1.92285380      -0.56029490        8 
O      -1.74174087       2.26176647       0.09716263        8 
C       0.49832080       3.33247973      -0.79181616        6 
C       3.96118423      -0.89553867       0.17610588        6 
C       0.12119875      -2.14650820      -0.46175611        6 
C      -1.14645369      -2.71995935      -0.50284623        6 
C      -2.24980844      -1.95572256      -0.16596948        6 
C      -2.14208310      -0.58579710       0.12330198        6 
H      -0.24632050       3.67571829      -1.51231253        1 
H       4.24248811       0.13258398      -0.05668901        1 
H      -3.23370249      -2.41132769      -0.14797669        1 
H       0.37810506       3.88488795       0.14140489        1 
H       1.50385284       3.46484055      -1.18513631        1 
H       4.58416096      -1.59756960      -0.37407055        1 
H       4.05667007      -1.05749961       1.25121292        1 
H      -1.26239597      -3.76843038      -0.75317246        1 
H       0.99979727      -2.75385963      -0.62656650        1 
C      -3.42785474       0.15357902       0.41437363        6 
H      -3.68737624       0.84191326      -0.39310403        1 
H      -3.35579477       0.75769718       1.31825926        1 
H      -4.24071849      -0.56613451       0.53269058        1 
