27
Lattice="0.0 0.0 0.0 0.0 0.0 0.0 0.0 0.0 0.0" Properties=species:S:1:pos:R:3:Z:I:1 pbc="F F F"
C       0.06221513      -1.16758467      -0.02391609        6 
C      -0.73980135      -0.03115495       0.13465445        6 
C       1.53978808      -1.11273102       0.24142995        6 
C      -0.08006115       1.29484754       0.37429673        6 
O       2.20440240      -0.57483715      -0.80128014        8 
O       2.06060983      -1.46182922       1.26860513        8 
O      -0.24990102       2.11678936      -0.67988838        8 
O       0.51398527       1.60448219       1.37760356        8 
C       0.33762365       3.42640281      -0.55657616        6 
C       3.62572394      -0.40981731      -0.62087800        6 
C      -0.52275359      -2.40649226      -0.28812619        6 
C      -1.90337973      -2.50404184      -0.41607772        6 
C      -2.69845003      -1.37277587      -0.25433814        6 
C      -2.13754476      -0.12172203       0.01330080        6 
H      -0.08491240       3.95507011       0.29929348        1 
H       3.82346974       0.23411311       0.23720402        1 
H      -3.77670969      -1.45867947      -0.33757987        1 
H       1.41824852       3.34522381      -0.43054194        1 
H       0.09706343       3.93951931      -1.48473594        1 
H       3.98153282       0.04800817      -1.54089164        1 
H       4.10305682      -1.37796131      -0.46251118        1 
H      -2.36239205      -3.46325534      -0.62696102        1 
H       0.10222749      -3.28652477      -0.38316480        1 
C      -3.02435760       1.09007617       0.17130275        6 
H      -2.93039226       1.75575884      -0.69055678        1 
H      -2.76154322       1.66763870       1.06186813        1 
H      -4.07039140       0.79273035       0.26186068        1 
