27
Lattice="0.0 0.0 0.0 0.0 0.0 0.0 0.0 0.0 0.0" Properties=species:S:1:pos:R:3:Z:I:1 pbc="F F F"
C       0.21716192      -1.18017317       0.01312800        6 
C      -0.69693662      -0.11169917       0.05774487        6 
C       1.69771826      -0.98312359       0.15098926        6 
C      -0.15416738       1.25858054       0.31951815        6 
O       2.17602602      -0.17249864      -0.81198492        8 
O       2.37684162      -1.51673382       0.99163811        8 
O      -0.75908229       2.20599437      -0.42276554        8 
O       0.73859663       1.49751722       1.09846815        8 
C      -0.29585373       3.55385016      -0.21846353        6 
C       3.57198174       0.16447996      -0.70871179        6 
C      -0.23270001      -2.49044000      -0.13701880        6 
C      -1.59356590      -2.74383318      -0.26241033        6 
C      -2.49950015      -1.69061203      -0.21197757        6 
C      -2.08061067      -0.36568046      -0.04750046        6 
H      -0.44978859       3.85669496       0.81834486        1 
H       3.74899706       0.72549008       0.21029272        1 
H      -3.56201068      -1.89519717      -0.28728815        1 
H       0.76489416       3.62974336      -0.46088678        1 
H      -0.88968809       4.16794843      -0.89163101        1 
H       3.78767982       0.77600588      -1.58193940        1 
H       4.18438384      -0.73806500      -0.70865046        1 
H      -1.94923973      -3.76056153      -0.38505500        1 
H       0.48620199      -3.30040928      -0.15094586        1 
C      -3.13300047       0.71573793       0.04358903        6 
H      -3.14499155       1.33202684      -0.85764797        1 
H      -2.95667369       1.38596748       0.88742201        1 
H      -4.12018348       0.26728523       0.16843560        1 
