27
Lattice="0.0 0.0 0.0 0.0 0.0 0.0 0.0 0.0 0.0" Properties=species:S:1:pos:R:3:Z:I:1 pbc="F F F"
C       0.60234858      -0.95207595      -0.23883471        6 
C      -0.59890905      -0.24832047       0.02759568        6 
C       1.97364792      -0.33796939      -0.17916356        6 
C      -0.57444921       1.22522316      -0.26047723        6 
O       2.11284358       0.43852944       0.90985102        8 
O       2.89332133      -0.66677238      -0.89063437        8 
O      -1.76541889       1.83342404      -0.07753913        8 
O       0.40281494       1.83450492      -0.63020298        8 
C      -1.80561051       3.23804813      -0.38646653        6 
C       3.38487852       1.09025081       1.05437128        6 
C       0.60569412      -2.33878925      -0.34979222        6 
C      -0.57073862      -3.05502566      -0.15561806        6 
C      -1.73474055      -2.38003498       0.17808168        6 
C      -1.78968919      -0.98009050       0.25562607        6 
H      -1.12097190       3.79068739       0.25827618        1 
H       4.19272957       0.35773706       1.08660585        1 
H      -2.64297003      -2.94368498       0.36169941        1 
H      -1.53111367       3.40694236      -1.42852275        1 
H      -2.83443370       3.54169137      -0.20463213        1 
H       3.32376976       1.63861789       1.99178506        1 
H       3.54620711       1.77534447       0.22027102        1 
H      -0.57265916      -4.13596166      -0.23962632        1 
H       1.53971459      -2.84407540      -0.56039790        1 
C      -3.13867358      -0.37370023       0.57542946        6 
H      -3.56052019       0.14664807      -0.28684908        1 
H      -3.07605764       0.35533615       1.38305865        1 
H      -3.83146257      -1.16378574       0.87101755        1 
