27
Lattice="0.0 0.0 0.0 0.0 0.0 0.0 0.0 0.0 0.0" Properties=species:S:1:pos:R:3:Z:I:1 pbc="F F F"
C       0.22930559      -0.96909402      -0.19750794        6 
C      -0.83260818      -0.06820273      -0.04710838        6 
C       1.63053930      -0.46228987      -0.33286393        6 
C      -0.60763140       1.40226794      -0.26652800        6 
O       2.44159289      -1.03458144       0.58041533        8 
O       2.01497725       0.30652804      -1.18077829        8 
O      -0.07413272       1.98730439       0.82346284        8 
O      -0.83627409       1.97509183      -1.30008259        8 
C       0.28591031       3.37645982       0.67394183        6 
C       3.83367951      -0.67401404       0.49571393        6 
C      -0.00428914      -2.34420960      -0.11430507        6 
C      -1.29878136      -2.81526388       0.06646595        6 
C      -2.35299787      -1.91587722       0.20684487        6 
C      -2.14253552      -0.53641340       0.14830062        6 
H       1.01967117       3.48610075      -0.12570645        1 
H       4.24175171      -0.95908790      -0.47525386        1 
H      -3.36025611      -2.28835593       0.36042744        1 
H      -0.59529979       3.97626287       0.44211701        1 
H       0.70919725       3.66903678       1.63205425        1 
H       4.32272547      -1.22397949       1.29649048        1 
H       3.95644597       0.40072012       0.63580666        1 
H      -1.48667087      -3.88191447       0.11147227        1 
H       0.82742105      -3.03305456      -0.19108574        1 
C      -3.29954432       0.42462730       0.27701523        6 
H      -3.47749440       0.94803284      -0.66658321        1 
H      -3.10465675       1.18315396       1.04032780        1 
H      -4.21444113      -0.10238868       0.55255589        1 
