27
Lattice="0.0 0.0 0.0 0.0 0.0 0.0 0.0 0.0 0.0" Properties=species:S:1:pos:R:3:Z:I:1 pbc="F F F"
C       0.53748884      -0.74631561       0.18280372        6 
C      -0.75336769      -0.26947705      -0.12601859        6 
C       1.73416817       0.12039874      -0.06738764        6 
C      -1.05729206       1.19836918      -0.25036884        6 
O       2.86160765      -0.61853594      -0.18103396        8 
O       1.73779479       1.32579556      -0.15162048        8 
O      -0.76063045       1.83954944       0.89115755        8 
O      -1.65606787       1.70160595      -1.17130497        8 
C      -0.95334122       3.26438563       0.88300222        6 
C       4.07443611       0.11856963      -0.41286482        6 
C       0.72066160      -2.10061693       0.48241466        6 
C      -0.36662261      -2.96427197       0.51069502        6 
C      -1.63266899      -2.49308712       0.18300600        6 
C      -1.85269647      -1.14925598      -0.13751615        6 
H      -0.27479896       3.72207198       0.16143022        1 
H       4.00850417       0.67506641      -1.34896323        1 
H      -2.47643231      -3.17479530       0.18470388        1 
H      -1.98401624       3.51405588       0.62742159        1 
H      -0.71453118       3.59366062       1.89171928        1 
H       4.86057202      -0.63132647      -0.46759043        1 
H       4.26110174       0.81469051       0.40619429        1 
H      -0.22420939      -4.00882200       0.76315021        1 
H       1.71785857      -2.46922598       0.67641061        1 
C      -3.25546493      -0.68680871      -0.45809170        6 
H      -3.33090843      -0.34055272      -1.49055891        1 
H      -3.56055764       0.14874409       0.17742030        1 
H      -3.96589818      -1.50192412      -0.31008397        1 
