27
Lattice="0.0 0.0 0.0 0.0 0.0 0.0 0.0 0.0 0.0" Properties=species:S:1:pos:R:3:Z:I:1 pbc="F F F"
C      -0.07054310      -0.96974791      -0.18509367        6 
C      -0.86482636       0.17452176       0.04011660        6 
C       1.43087819      -0.96806906      -0.29027302        6 
C      -0.27912437       1.54712962      -0.04881260        6 
O       1.99329629      -0.94592067       0.93156645        8 
O       2.04592420      -1.11913653      -1.31664484        8 
O       1.06887998       1.53664659      -0.00900663        8 
O      -0.91229348       2.56832762      -0.19350980        8 
C       1.72431159       2.79848884      -0.21873839        6 
C       3.43057526      -0.98245225       0.95904852        6 
C      -0.65524079      -2.23163614      -0.27679600        6 
C      -2.02692797      -2.37664723      -0.11059495        6 
C      -2.80976089      -1.26012407       0.15229172        6 
C      -2.26311397       0.02556782       0.21826097        6 
H       1.43170448       3.22292564      -1.17981080        1 
H       3.80155310      -1.88838886       0.47728907        1 
H      -3.87751895      -1.37854484       0.30006600        1 
H       1.46781316       3.49749879       0.57851630        1 
H       2.78865083       2.57508026      -0.20627374        1 
H       3.70051393      -0.96846181       2.01255975        1 
H       3.83958348      -0.11037993       0.44572821        1 
H      -2.48198194      -3.35857308      -0.17642421        1 
H      -0.03071752      -3.09614094      -0.46786211        1 
C      -3.20627597       1.17498070       0.48285508        6 
H      -3.32807821       1.80120451      -0.40331304        1 
H      -2.84100637       1.83216915       1.27301206        1 
H      -4.18454179       0.78675298       0.77330706        1 
