27
Lattice="0.0 0.0 0.0 0.0 0.0 0.0 0.0 0.0 0.0" Properties=species:S:1:pos:R:3:Z:I:1 pbc="F F F"
C      -0.22014093      -1.16611118      -0.03021700        6 
C      -0.77109248       0.12064090       0.09557973        6 
C       1.24573881      -1.45619122      -0.02111034        6 
C       0.08595457       1.34879312       0.22588618        6 
O       1.96621424      -0.45984791       0.52748459        8 
O       1.73759797      -2.48349010      -0.42788336        8 
O       0.65113790       1.66458378      -0.95547975        8 
O       0.21016439       1.99954760       1.23229264        8 
C       1.53185699       2.80258771      -0.94486994        6 
C       3.39054959      -0.65143379       0.56815236        6 
C      -1.06569081      -2.27293260      -0.16369028        6 
C      -2.44277744      -2.10494313      -0.15837120        6 
C      -2.98290989      -0.82860941      -0.02536440        6 
C      -2.16609277       0.29787892       0.10191528        6 
H       0.99535939       3.70044235      -0.63462674        1 
H       3.63553847      -1.55853155       1.12204701        1 
H      -4.05994368      -0.69843598      -0.02467477        1 
H       2.36385720       2.62735746      -0.26054984        1 
H       1.88922117       2.90197969      -1.96726816        1 
H       3.78434533       0.22659611       1.07489169        1 
H       3.79070819      -0.72887847      -0.44413596        1 
H      -3.09625398      -2.96419717      -0.25677608        1 
H      -0.62099027      -3.25426113      -0.26738618        1 
C      -2.78125107       1.67044036       0.23859761        6 
H      -2.39494619       2.35804769      -0.51962018        1 
H      -2.55515436       2.10447595       1.21531400        1 
H      -3.86519302       1.62113897       0.12473439        1 
