27
Lattice="0.0 0.0 0.0 0.0 0.0 0.0 0.0 0.0 0.0" Properties=species:S:1:pos:R:3:Z:I:1 pbc="F F F"
C       0.64642490      -0.91513831       0.18994695        6 
C      -0.62072236      -0.32451427      -0.00546631        6 
C       1.92403109      -0.12777895       0.31227165        6 
C      -0.67815205       1.16515785       0.12569173        6 
O       2.31549887       0.33264202      -0.88828826        8 
O       2.57942912      -0.05349574       1.32163155        8 
O      -1.92629451       1.67218262       0.07845433        8 
O       0.29462035       1.87040028       0.27635782        8 
C      -2.02995872       3.09917626       0.23385174        6 
C       3.49523200       1.15545946      -0.88622496        6 
C       0.79173512      -2.29859345       0.23285905        6 
C      -0.31710900      -3.11575577       0.05050641        6 
C      -1.56233595      -2.54468586      -0.17620660        6 
C      -1.75253833      -1.15780808      -0.19780409        6 
H      -1.61604988       3.40807155       1.19456666        1 
H       3.31967111       2.04895537      -0.28487258        1 
H      -2.42226080      -3.18728897      -0.32910494        1 
H      -1.49490065       3.60971324      -0.56802262        1 
H      -3.09489340       3.31607684       0.18526211        1 
H       3.66444512       1.42114346      -1.92738336        1 
H       4.34828842       0.60618878      -0.48495694        1 
H      -0.21049081      -4.19440559       0.07709177        1 
H       1.77266308      -2.72628476       0.40032311        1 
C      -3.16325794      -0.66519679      -0.43091875        6 
H      -3.21635065       0.03531565      -1.26519408        1 
H      -3.55587544      -0.14263502       0.44311305        1 
H      -3.81601994      -1.51257974      -0.64832421        1 
