27
Lattice="0.0 0.0 0.0 0.0 0.0 0.0 0.0 0.0 0.0" Properties=species:S:1:pos:R:3:Z:I:1 pbc="F F F"
C      -0.17022597      -1.05461800      -0.21194393        6 
C      -0.78307977       0.18347506       0.09105845        6 
C       1.29614182      -1.32907964      -0.05086759        6 
C      -0.00916943       1.46319890       0.01636826        6 
O       1.91237030      -0.41661402       0.72636680        8 
O       1.84145111      -2.33819622      -0.43517205        8 
O       0.89553368       1.41600612      -0.98630155        8 
O      -0.24521320       2.47069691       0.64100580        8 
C       1.71938514       2.58035363      -1.14736214        6 
C       3.30076467      -0.66168108       1.00656363        6 
C      -0.95320670      -2.18839008      -0.42601772        6 
C      -2.33821242      -2.11000207      -0.33317862        6 
C      -2.93632301      -0.90555606       0.01055980        6 
C      -2.18556391       0.25993213       0.21882571        6 
H       1.10736785       3.46571408      -1.32518836        1 
H       3.42578287      -1.62340381       1.50620480        1 
H      -4.01549169      -0.85104948       0.10505046        1 
H       2.32820969       2.73762883      -0.25469092        1 
H       2.35083190       2.37087942      -2.00812351        1 
H       3.61097178       0.15255634       1.65764812        1 
H       3.88204247      -0.66020929       0.08291570        1 
H      -2.94627857      -2.99108616      -0.50444031        1 
H      -0.45730256      -3.12835485      -0.63107177        1 
C      -2.92223920       1.53949449       0.53861698        6 
H      -2.69044090       2.33260751      -0.17572156        1 
H      -2.64468626       1.92046695       1.52243864        1 
H      -3.99922370       1.36340881       0.51986083        1 
