27
Lattice="0.0 0.0 0.0 0.0 0.0 0.0 0.0 0.0 0.0" Properties=species:S:1:pos:R:3:Z:I:1 pbc="F F F"
C       0.10565972      -0.91649015      -0.05132475        6 
C      -0.91261734       0.05719181      -0.03659445        6 
C       1.53238076      -0.56328078      -0.34830165        6 
C      -0.56983703       1.51215274      -0.04004322        6 
O       2.37206025      -1.11436585       0.54915293        8 
O       1.89552349       0.05928049      -1.31644049        8 
O       0.58253570       1.74415607       0.62280128        8 
O      -1.25417963       2.39317877      -0.50458688        8 
C       1.07768909       3.09328707       0.58018663        6 
C       3.77594890      -0.92158384       0.29416157        6 
C      -0.20932754      -2.26962033       0.06201149        6 
C      -1.53925089      -2.66360091       0.16495682        6 
C      -2.54598961      -1.70673772       0.16168816        6 
C      -2.26322122      -0.33847710       0.06728346        6 
H       1.32370349       3.36758321      -0.44706319        1 
H       4.05200102      -1.35883105      -0.66677794        1 
H      -3.58098980      -2.02007243       0.24462875        1 
H       0.33435272       3.78686209       0.97494588        1 
H       1.97159412       3.09237227       1.19981611        1 
H       4.28940541      -1.42659562       1.10918272        1 
H       4.01847178       0.14199623       0.28649609        1 
H      -1.78984585      -3.71537011       0.24579614        1 
H       0.58421191      -3.00614146       0.05334484        1 
C      -3.41373343       0.63919083       0.10278473        6 
H      -3.52936492       1.14627540      -0.85690167        1 
H      -3.26107293       1.42203860       0.84832835        1 
H      -4.34195838       0.11487038       0.33714491        1 
