27
Lattice="0.0 0.0 0.0 0.0 0.0 0.0 0.0 0.0 0.0" Properties=species:S:1:pos:R:3:Z:I:1 pbc="F F F"
C       0.13220247      -0.91430398      -0.04656100        6 
C      -0.90731589       0.03604098      -0.03953286        6 
C       1.54839953      -0.52116511      -0.33722262        6 
C      -0.59749380       1.49918954      -0.05923734        6 
O       2.40979402      -1.12543452       0.50459969        8 
O       1.89018793       0.18261892      -1.25677903        8 
O       0.49140182       1.77575012       0.68737240        8 
O      -1.26161743       2.34736173      -0.60577213        8 
C       0.96147348       3.13394107       0.64041024        6 
C       3.80668457      -0.89288968       0.24506905        6 
C      -0.15482634      -2.27365506       0.07386471        6 
C      -1.47629403      -2.69481245       0.17739627        6 
C      -2.50324781      -1.75932448       0.16727006        6 
C      -2.24843650      -0.38626488       0.06371121        6 
H       1.27928482       3.38241062      -0.37363742        1 
H       4.07658197      -1.26113984      -0.74617918        1 
H      -3.53174541      -2.09355884       0.25042806        1 
H       0.17644332       3.82228396       0.95560985        1 
H       1.80533499       3.17140747       1.32558639        1 
H       4.33933728      -1.44217005       1.01802064        1 
H       4.03235777       0.17272198       0.30450263        1 
H      -1.70465819      -3.75112292       0.26425044        1 
H       0.65427077      -2.99274440       0.07019797        1 
C      -3.41562696       0.57183469       0.08696638        6 
H      -3.54247995       1.05943655      -0.88143062        1 
H      -3.27474234       1.36969361       0.81905858        1 
H      -4.33456318       0.03691949       0.33349660        1 
