27
Lattice="0.0 0.0 0.0 0.0 0.0 0.0 0.0 0.0 0.0" Properties=species:S:1:pos:R:3:Z:I:1 pbc="F F F"
C       0.76521346       0.59005120       0.16679732        6 
C      -0.60514450       0.26542654      -0.06920155        6 
C       1.87103463      -0.35210480      -0.24102059        6 
C      -1.02727611      -1.15398613       0.22436477        6 
O       3.07453552       0.06469096       0.22785010        8 
O       1.74379887      -1.35496016      -0.89366500        8 
O      -2.32629232      -1.39793971      -0.07018078        8 
O      -0.30317268      -2.01440087       0.65679815        8 
C      -2.78366936      -2.73545902       0.19387366        6 
C       4.19184618      -0.77007565      -0.12040986        6 
C       1.13886826       1.91527121       0.38124345        6 
C       0.19063879       2.93409739       0.35530598        6 
C      -1.12110057       2.63221803       0.03786742        6 
C      -1.55484761       1.30943832      -0.15758509        6 
H      -2.22400499      -3.45518522      -0.40531668        1 
H       4.03593844      -1.78581950       0.24615410        1 
H      -1.85137785       3.43081679      -0.03470626        1 
H      -2.66274440      -2.98141948       1.25001508        1 
H      -3.83595446      -2.73936937      -0.08356220        1 
H       5.05508550      -0.31481957       0.36035150        1 
H       4.32574619      -0.79970075      -1.20326903        1 
H       0.48704509       3.96024473       0.53979105        1 
H       2.18499473       2.14445477       0.52487477        1 
C      -3.03272315       1.12691026      -0.43427313        6 
H      -3.54924154       0.66501271       0.40955593        1 
H      -3.20757164       0.48620670      -1.29764719        1 
H      -3.48842116       2.10102099      -0.62221253        1 
