27
Lattice="0.0 0.0 0.0 0.0 0.0 0.0 0.0 0.0 0.0" Properties=species:S:1:pos:R:3:Z:I:1 pbc="F F F"
C       0.02032875      -0.93870707      -0.10580562        6 
C      -0.91307345       0.10927321      -0.00813880        6 
C       1.47872293      -0.69020737      -0.36381183        6 
C      -0.45355557       1.52989167      -0.05494539        6 
O       2.23478151      -1.12948855       0.65828266        8 
O       1.92485695      -0.24808998      -1.39425451        8 
O       0.74711638       1.67580128       0.54490482        8 
O      -1.06724261       2.44982632      -0.54132567        8 
C       1.36717401       2.96761989       0.42239255        6 
C       3.65880258      -1.01007230       0.48131630        6 
C      -0.39917063      -2.26647001      -0.04807189        6 
C      -1.75174230      -2.55752239       0.08994029        6 
C      -2.67720877      -1.52418613       0.17969309        6 
C      -2.28761478      -0.18173087       0.13015496        6 
H       1.57648976       3.18271564      -0.62670360        1 
H       3.98425656      -1.57816399      -0.39150076        1 
H      -3.72982063      -1.75770035       0.29675612        1 
H       0.71999779       3.74385521       0.83208662        1 
H       2.29196466       2.89837113       0.99076181        1 
H       4.09747751      -1.41486559       1.39041754        1 
H       3.93749446       0.03684437       0.35240760        1 
H      -2.08420414      -3.58878414       0.12977928        1 
H       0.33056873      -3.06376807      -0.11828348        1 
C      -3.34799164       0.88693931       0.24331828        6 
H      -3.46700488       1.42311273      -0.70015372        1 
H      -3.09392600       1.63607047       0.99605308        1 
H      -4.30487513       0.43685900       0.51427699        1 
