27
Lattice="0.0 0.0 0.0 0.0 0.0 0.0 0.0 0.0 0.0" Properties=species:S:1:pos:R:3:Z:I:1 pbc="F F F"
C       0.03837872      -1.22439996      -0.07837699        6 
C      -0.69159972      -0.01878792      -0.03645409        6 
C       1.53313974      -1.31091143      -0.02043636        6 
C      -0.02777054       1.28296906      -0.38553149        6 
O       2.10753981      -0.15727016       0.36312411        8 
O       2.15631284      -2.33360867      -0.19253644        8 
O      -0.22899152       2.22356990       0.55768785        8 
O       0.60624825       1.46936128      -1.39394353        8 
C       0.36987032       3.50639645       0.29608575        6 
C       3.54276027      -0.16128745       0.44395356        6 
C      -0.63205493      -2.44703784       0.00617968        6 
C      -2.01507262      -2.48275578       0.12404992        6 
C      -2.73178673      -1.29296249       0.17115404        6 
C      -2.09460503      -0.05017462       0.08166490        6 
H       1.45107396       3.40296688       0.19485245        1 
H       3.88120248      -0.90208657       1.16986544        1 
H      -3.81265354      -1.32155004       0.25957098        1 
H      -0.03601231       3.93835843      -0.62014393        1 
H       0.12095530       4.12361932       1.15632479        1 
H       3.81630503       0.84244516       0.76099916        1 
H       3.97459576      -0.38698185      -0.53198678        1 
H      -2.53265031      -3.43312988       0.18693125        1 
H      -0.04640766      -3.35714188      -0.00575697        1 
C      -2.93705505       1.20495481       0.07155561        6 
H      -2.69301731       1.84903836      -0.77776155        1 
H      -2.78277838       1.79488136       0.97755508        1 
H      -3.99591290       0.95074877       0.00212614        1 
