27
Lattice="0.0 0.0 0.0 0.0 0.0 0.0 0.0 0.0 0.0" Properties=species:S:1:pos:R:3:Z:I:1 pbc="F F F"
C      -0.04604337      -1.22993999       0.00513843        6 
C      -0.71206260       0.00786260       0.05171016        6 
C       1.44129963      -1.38143434       0.01252520        6 
C       0.03170027       1.27269168       0.37573150        6 
O       2.07576796      -0.25670217      -0.36828284        8 
O       2.01608962      -2.41351186       0.27029844        8 
O      -0.00952292       2.14944892      -0.64417936        8 
O       0.57109055       1.48985169       1.43203773        8 
C       0.67814114       3.39541461      -0.42659067        6 
C       3.51253736      -0.30187662      -0.34610199        6 
C      -0.78137393      -2.41125969      -0.12666466        6 
C      -2.16566692      -2.36669863      -0.21905730        6 
C      -2.82041562      -1.13968695      -0.17626576        6 
C      -2.11500230       0.05913166      -0.03444015        6 
H       0.24502872       3.92983065       0.42034723        1 
H       3.86759179      -0.50044787       0.66605304        1 
H      -3.90293675      -1.10612964      -0.24044966        1 
H       1.73576928       3.21177592      -0.23196735        1 
H       0.54934047       3.96214207      -1.34595761        1 
H       3.83757045       0.68066621      -0.68057037        1 
H       3.87899313      -1.07920314      -1.01806595        1 
H      -2.73465972      -3.28354858      -0.32241072        1 
H      -0.24674138      -3.35168982      -0.16280271        1 
C      -2.86769570       1.36660787       0.04939969        6 
H      -2.70859378       1.97172277      -0.84670986        1 
H      -2.54272240       1.96225893       0.90683982        1 
H      -3.93868295       1.18657148       0.15558293        1 
