27
Lattice="0.0 0.0 0.0 0.0 0.0 0.0 0.0 0.0 0.0" Properties=species:S:1:pos:R:3:Z:I:1 pbc="F F F"
C       0.18804664      -0.97069313      -0.23985429        6 
C      -0.81405106      -0.03729773       0.05192345        6 
C       1.63844895      -0.58350442      -0.30987411        6 
C      -0.47209303       1.40189614       0.31255129        6 
O       2.29155573      -1.01640428       0.78747116        8 
O       2.17063257      -0.00865691      -1.22572978        8 
O      -0.10742969       2.02715155      -0.81608712        8 
O      -0.53576145       1.93496656       1.39483136        8 
C       0.30470366       3.40116213      -0.68297375        6 
C       3.70875104      -0.75597773       0.82396311        6 
C      -0.14240905      -2.31371498      -0.43330200        6 
C      -1.47126084      -2.71478724      -0.37009918        6 
C      -2.46535498      -1.78375658      -0.08229609        6 
C      -2.15823316      -0.44044280       0.14454390        6 
H      -0.51502161       4.00985093      -0.29837126        1 
H       4.20684649      -1.24405012      -0.01536731        1 
H      -3.50056850      -2.10324588      -0.02727657        1 
H       1.15740333       3.47444200      -0.00671764        1 
H       0.58340935       3.71450115      -1.68597614        1 
H       4.05251711      -1.16892871       1.76932896        1 
H       3.89938350       0.31720456       0.78052044        1 
H      -1.73270875      -3.75356877      -0.53684517        1 
H       0.63937021      -3.03598780      -0.63591586        1 
C      -3.25082506       0.54515776       0.48195218        6 
H      -3.21975802       1.41915181      -0.17504080        1 
H      -3.14743046       0.90758848       1.50780329        1 
H      -4.23343323       0.08208934       0.37845212        1 
