27
Lattice="0.0 0.0 0.0 0.0 0.0 0.0 0.0 0.0 0.0" Properties=species:S:1:pos:R:3:Z:I:1 pbc="F F F"
C       0.72436804       0.67602019       0.07714188        6 
C      -0.63305013       0.29341927      -0.08755429        6 
C       1.86555790      -0.21984673      -0.32544789        6 
C      -0.93677953      -1.16969630       0.09577927        6 
O       2.91103545      -0.09652370       0.52159602        8 
O       1.87403113      -0.92378666      -1.30115902        8 
O      -2.26131710      -1.44077206       0.12550149        8 
O      -0.10853888      -2.03927745       0.21668483        8 
C      -2.61363832      -2.82211229       0.31701740        6 
C       4.06633052      -0.89193064       0.19654492        6 
C       1.05928078       2.00992165       0.29397488        6 
C       0.06776070       2.98631184       0.31175560        6 
C      -1.24844077       2.62766795       0.07087424        6 
C      -1.63547414       1.29046326      -0.10995258        6 
H      -2.21308228      -3.43428983      -0.49206460        1 
H       3.80404467      -1.95090677       0.18892205        1 
H      -2.01420730       3.39519694       0.04415275        1 
H      -2.22518669      -3.18889710       1.26834775        1 
H      -3.70162318      -2.84301908       0.31364043        1 
H       4.79243356      -0.68068931       0.97841432        1 
H       4.45987423      -0.61275493      -0.78224476        1 
H       0.32772463       4.02495129       0.48106240        1 
H       2.10067071       2.27887090       0.41240326        1 
C      -3.11331424       1.03806126      -0.31938377        6 
H      -3.57350687       0.58647574       0.56187526        1 
H      -3.29803547       0.35983778      -1.15180661        1 
H      -3.61650129       1.98537979      -0.52222189        1 
