27
Lattice="0.0 0.0 0.0 0.0 0.0 0.0 0.0 0.0 0.0" Properties=species:S:1:pos:R:3:Z:I:1 pbc="F F F"
C      -0.15042957      -1.18670847      -0.15556213        6 
C      -0.73768127       0.06954964       0.06421528        6 
C       1.31068346      -1.45680000       0.01049401        6 
C       0.08029065       1.31146955       0.29208877        6 
O       2.07664228      -0.37904246      -0.24451377        8 
O       1.76041508      -2.51769499       0.37615453        8 
O       0.40874057       1.88933837      -0.87583879        8 
O       0.31838595       1.78788677       1.37465766        8 
C       1.19556865       3.09021364      -0.78274590        6 
C       3.48484569      -0.53153625       0.01150710        6 
C      -0.96491566      -2.30298993      -0.37905090        6 
C      -2.34425554      -2.16488566      -0.42099147        6 
C      -2.92056672      -0.91680792      -0.19701594        6 
C      -2.13671032       0.21206174       0.05096033        6 
H       0.65704651       3.86133126      -0.22964061        1 
H       3.65474942      -0.76083566       1.06437145        1 
H      -4.00031221      -0.81199892      -0.21347907        1 
H       2.14109835       2.88180436      -0.27913924        1 
H       1.36923243       3.40277111      -1.80983689        1 
H       3.93136665       0.42478033      -0.25072645        1 
H       3.89806964      -1.33159518      -0.60385540        1 
H      -2.97241163      -3.02776896      -0.61032482        1 
H      -0.49698353      -3.27085720      -0.50564124        1 
C      -2.78617444       1.55255157       0.29915215        6 
H      -2.45454210       2.29482271      -0.43309975        1 
H      -2.53296222       1.93458195       1.29132543        1 
H      -3.87211039       1.47490063       0.22988552        1 
