27
Lattice="0.0 0.0 0.0 0.0 0.0 0.0 0.0 0.0 0.0" Properties=species:S:1:pos:R:3:Z:I:1 pbc="F F F"
C       0.07190962      -1.22338920       0.02519450        6 
C      -0.70641972      -0.05673333      -0.05706286        6 
C       1.56432122      -1.20414586      -0.08809316        6 
C      -0.02436293       1.24628910      -0.34749669        6 
O       2.11123306      -0.27029413       0.71458026        8 
O       2.20104817      -1.94843371      -0.79219169        8 
O      -0.37025060       2.20489804       0.53165333        8 
O       0.73920366       1.42370324      -1.26605684        8 
C       0.22672073       3.49780573       0.31672938        6 
C       3.53346333      -0.08908225       0.58596415        6 
C      -0.53852508      -2.46738758       0.18512029        6 
C      -1.92162969      -2.55027295       0.28885870        6 
C      -2.69194883      -1.39489598       0.20568324        6 
C      -2.10947104      -0.13575446       0.02740947        6 
H       1.31339785       3.42746658       0.38081049        1 
H       4.05762048      -1.02570284       0.77972206        1 
H      -3.77269978      -1.46757915       0.26548107        1 
H      -0.05070380       3.88745611      -0.66392162        1 
H      -0.16453523       4.13195125       1.10887699        1 
H       3.79797441       0.66090035       1.32789493        1 
H       3.77222679       0.26085965      -0.41956084        1 
H      -2.40106384      -3.51352609       0.42118857        1 
H       0.07791079      -3.35679955       0.22584240        1 
C      -3.00036576       1.07857404      -0.09565145        6 
H      -2.72340427       1.70088646      -0.95045251        1 
H      -2.93302889       1.70650907       0.79537218        1 
H      -4.04033038       0.77478482      -0.22615208        1 
