27
Lattice="0.0 0.0 0.0 0.0 0.0 0.0 0.0 0.0 0.0" Properties=species:S:1:pos:R:3:Z:I:1 pbc="F F F"
C       0.17183985      -0.87544381      -0.02970119        6 
C      -0.90049979       0.04204559       0.07585222        6 
C       1.57651693      -0.50128796       0.34188940        6 
C      -0.65671308       1.51797928      -0.00018465        6 
O       2.47750087      -1.11966729      -0.45065971        8 
O       1.87833325       0.20586102       1.27138280        8 
O       0.53438746       1.79499904      -0.56839161        8 
O      -1.46452623       2.37869574       0.26627466        8 
C       0.88356117       3.18427801      -0.66622117        6 
C       3.85947405      -0.91074561      -0.10895197        6 
C      -0.07757026      -2.23180686      -0.23105160        6 
C      -1.38681238      -2.69765662      -0.30167003        6 
C      -2.44008825      -1.80823876      -0.15436874        6 
C      -2.23034555      -0.43256191       0.02153624        6 
H       0.15081467       3.72278024      -1.26905383        1 
H       4.10499187       0.15147796      -0.14614603        1 
H      -3.45958254      -2.17595769      -0.19259673        1 
H       0.93481412       3.63169451       0.32768973        1 
H       1.86116457       3.20214820      -1.14282204        1 
H       4.42803812      -1.46259228      -0.85419399        1 
H       4.06651748      -1.29118549       0.89281454        1 
H      -1.58163648      -3.75320555      -0.45458432        1 
H       0.75523455      -2.91870326      -0.30321103        1 
C      -3.44911111       0.45436192       0.11832070        6 
H      -3.46960239       1.20537135      -0.67430775        1 
H      -3.46955264       1.00519148       1.05928919        1 
H      -4.35317281      -0.15321340       0.04405872        1 
