27
Lattice="0.0 0.0 0.0 0.0 0.0 0.0 0.0 0.0 0.0" Properties=species:S:1:pos:R:3:Z:I:1 pbc="F F F"
C       0.30263169      -0.87721488       0.02113338        6 
C      -0.86990176      -0.10075818      -0.07100334        6 
C       1.63945044      -0.26601864      -0.25227448        6 
C      -0.80327079       1.39678151      -0.12566973        6 
O       2.64214739      -0.99112142       0.28796863        8 
O       1.82472397       0.73201199      -0.90837236        8 
O      -0.01633882       1.87781175       0.85562298        8 
O      -1.44799659       2.09149853      -0.87321120        8 
C       0.23208456       3.29393628       0.82475730        6 
C       3.97433764      -0.52383609       0.01145469        6 
C       0.21277404      -2.25982985       0.19949404        6 
C      -1.03351661      -2.87012855       0.28135950        6 
C      -2.18746624      -2.10351011       0.17409197        6 
C      -2.13413492      -0.71538176      -0.00154829        6 
H       0.78618633       3.54769548      -0.08059139        1 
H       4.15436045      -0.49929032      -1.06436218        1 
H      -3.15769747      -2.58477181       0.23627840        1 
H      -0.70505010       3.85127455       0.84967867        1 
H       0.82864964       3.50268288       1.71002387        1 
H       4.63679165      -1.23694344       0.49697876        1 
H       4.11911645       0.47632817       0.42241127        1 
H      -1.10538597      -3.94298967       0.41951509        1 
H       1.11911915      -2.84689670       0.25504165        1 
C      -3.42472861       0.06487995      -0.08926422        6 
H      -3.55671543       0.49361483      -1.08444372        1 
H      -3.44396202       0.89909387       0.61600584        1 
H      -4.27443639      -0.58484144       0.12771833        1 
