27
Lattice="0.0 0.0 0.0 0.0 0.0 0.0 0.0 0.0 0.0" Properties=species:S:1:pos:R:3:Z:I:1 pbc="F F F"
C       0.67645065      -0.78681404      -0.03945766        6 
C      -0.65323318      -0.31088797      -0.04468050        6 
C       1.85329666       0.09501017      -0.35912541        6 
C      -0.81917827       1.17166677       0.08890368        6 
O       2.74389924       0.10688871       0.64893154        8 
O       2.01807662       0.63676983      -1.42235876        8 
O      -2.09543270       1.59090759      -0.02529345        8 
O       0.09872861       1.94015467       0.26360432        8 
C      -2.30013098       3.01146095       0.08246792        6 
C       3.92937600       0.89334248       0.42305358        6 
C       0.94631345      -2.14920915       0.05069565        6 
C      -0.10187138      -3.06062571       0.11454039        6 
C      -1.41128660      -2.60372261       0.07955502        6 
C      -1.72241960      -1.23853009       0.01592079        6 
H      -1.96641668       3.37251767       1.05639705        1 
H       4.48149070       0.51316318      -0.43800908        1 
H      -2.22528734      -3.31897097       0.12015590        1 
H      -1.75118004       3.53437793      -0.70169982        1 
H      -3.37192483       3.15669700      -0.03505584        1 
H       4.51861008       0.79471310       1.33197605        1 
H       3.65932720       1.93553794       0.24816342        1 
H       0.10165882      -4.12342891       0.18236066        1 
H       1.97388543      -2.49142985       0.05063210        1 
C      -3.19042078      -0.87329826       0.03253991        6 
H      -3.47180612      -0.28976937      -0.84477631        1 
H      -3.44901135      -0.27114214       0.90544066        1 
H      -3.79307918      -1.78298845       0.05254862        1 
