27
Lattice="0.0 0.0 0.0 0.0 0.0 0.0 0.0 0.0 0.0" Properties=species:S:1:pos:R:3:Z:I:1 pbc="F F F"
C      -0.07466017      -0.97567843      -0.23490958        6 
C      -0.82946468       0.17878442       0.07355324        6 
C       1.42696466      -1.05415218      -0.23517583        6 
C      -0.23578893       1.54608948      -0.07640246        6 
O       1.91579835      -0.81123359       0.99471237        8 
O       2.09361727      -1.45694666      -1.15752192        8 
O       1.11066089       1.53382456      -0.13561945        8 
O      -0.87599418       2.56054840      -0.23961067        8 
C       1.74505718       2.78758607      -0.43872124        6 
C       3.34298606      -0.90993267       1.13084538        6 
C      -0.70493400      -2.20577012      -0.41461861        6 
C      -2.07817948      -2.31862599      -0.23131595        6 
C      -2.81432061      -1.20391252       0.14625320        6 
C      -2.22484445       0.05827426       0.28252345        6 
H       1.39193584       3.17120513      -1.39696585        1 
H       3.68556463      -1.91410126       0.87573359        1 
H      -3.88039497      -1.30084003       0.32057112        1 
H       1.53434304       3.51957373       0.34206948        1 
H       2.80924002       2.56718060      -0.48277186        1 
H       3.55046313      -0.68711838       2.17504352        1 
H       3.83613880      -0.18714251       0.47827095        1 
H      -2.56798128      -3.27685210      -0.36350272        1 
H      -0.10827301      -3.07204899      -0.67252860        1 
C      -3.12484227       1.21495527       0.64859004        6 
H      -3.32048190       1.85316479      -0.21574131        1 
H      -2.68050646       1.85600242       1.41011347        1 
H      -4.07695165       0.83313410       1.02275670        1 
