27
Lattice="0.0 0.0 0.0 0.0 0.0 0.0 0.0 0.0 0.0" Properties=species:S:1:pos:R:3:Z:I:1 pbc="F F F"
C       0.55191493      -0.87862553       0.24286579        6 
C      -0.66965257      -0.27420099      -0.07563106        6 
C       1.79650085      -0.04928782       0.34714995        6 
C      -0.70531568       1.21150110      -0.28588433        6 
O       2.68407643      -0.39144138      -0.60096733        8 
O       2.00189705       0.77428580       1.20595796        8 
O      -1.44921655       1.82236734       0.65108089        8 
O      -0.15538827       1.78659066      -1.19424985        8 
C      -1.54836786       3.25644988       0.54396836        6 
C       3.93010046       0.33378246      -0.59118150        6 
C       0.62467068      -2.25913321       0.42973581        6 
C      -0.52886520      -3.02813279       0.32441030        6 
C      -1.74198531      -2.42462079       0.00447750        6 
C      -1.83867757      -1.04502188      -0.19699719        6 
H      -0.55868341       3.70777426       0.62127655        1 
H       3.74653280       1.39472806      -0.76553454        1 
H      -2.63387149      -3.03403734      -0.09626774        1 
H      -2.00236069       3.53587898      -0.40810559        1 
H      -2.17699958       3.56371533       1.37639930        1 
H       4.51652233      -0.09276922      -1.40145331        1 
H       4.43901833       0.20605304       0.36540628        1 
H      -0.48155583      -4.10028263       0.47771655        1 
H       1.57725514      -2.72276450       0.65491915        1 
C      -3.16794150      -0.42118648      -0.55008192        6 
H      -3.08532149       0.23124183      -1.42384342        1 
H      -3.54748215       0.18554340       0.27586695        1 
H      -3.90640211      -1.19194635      -0.77668992        1 
