27
Lattice="0.0 0.0 0.0 0.0 0.0 0.0 0.0 0.0 0.0" Properties=species:S:1:pos:R:3:Z:I:1 pbc="F F F"
C       0.34945239      -1.09718538      -0.00922074        6 
C      -0.69516511      -0.16128128       0.09224197        6 
C       1.78623753      -0.72546994       0.23778400        6 
C      -0.31484918       1.27663949       0.25470510        6 
O       2.34561695      -0.17536338      -0.85583600        8 
O       2.35912460      -0.90987498       1.27971655        8 
O      -1.10403541       2.09913168      -0.46567708        8 
O       0.60667601       1.67184167       0.92944403        8 
C      -0.80982625       3.50440303      -0.36072935        6 
C       3.69915236       0.29352601      -0.69522001        6 
C       0.07017670      -2.44523519      -0.22531837        6 
C      -1.24877474      -2.86925860      -0.33641019        6 
C      -2.28416875      -1.95073822      -0.20374568        6 
C      -2.03718450      -0.59023386       0.00302882        6 
H      -0.89773304       3.83538336       0.67506874        1 
H       3.73515299       1.06499182       0.07515642        1 
H      -3.31208984      -2.29346471      -0.25491057        1 
H       0.19989638       3.70884116      -0.71916965        1 
H      -1.54710376       4.00059639      -0.98789366        1 
H       3.98062287       0.69980491      -1.66412303        1 
H       4.35825259      -0.53003352      -0.41687256        1 
H      -1.47055738      -3.91691034      -0.50572557        1 
H       0.88410124      -3.15734049      -0.29075111        1 
C      -3.21942553       0.34015287       0.15373821        6 
H      -3.39416573       0.90764836      -0.76324516        1 
H      -3.07031227       1.06473000       0.95562847        1 
H      -4.11980554      -0.23452036       0.37884104        1 
