27
Lattice="0.0 0.0 0.0 0.0 0.0 0.0 0.0 0.0 0.0" Properties=species:S:1:pos:R:3:Z:I:1 pbc="F F F"
C      -0.14919251      -0.99203548       0.21362662        6 
C      -0.84161206       0.21854759      -0.01434282        6 
C       1.34773045      -1.13058254       0.22779472        6 
C      -0.13702809       1.53428491       0.07380784        6 
O       1.86109782      -0.85842334      -0.98794032        8 
O       1.99077515      -1.56043356       1.15290215        8 
O       1.14795446       1.39726244       0.46251699        8 
O      -0.64738435       2.62057118      -0.08472863        8 
C       1.89973628       2.60886891       0.63459754        6 
C       3.28845538      -0.98444361      -1.10655689        6 
C      -0.84026014      -2.19519444       0.33284074        6 
C      -2.22253192      -2.21960341       0.18701988        6 
C      -2.90605506      -1.04163084      -0.07942846        6 
C      -2.25003682       0.19222497      -0.17077715        6 
H       1.93047836       3.17437346      -0.29764715        1 
H       3.78789487      -0.31582832      -0.40329795        1 
H      -3.98261029      -1.06723144      -0.20606391        1 
H       1.45244967       3.22525928       1.41566454        1 
H       2.89723737       2.28749704       0.92606414        1 
H       3.51943464      -0.70567603      -2.13225229        1 
H       3.60088205      -2.01090069      -0.90776562        1 
H      -2.76279634      -3.15586393       0.27180527        1 
H      -0.28798337      -3.10750020       0.52252596        1 
C      -3.09731846       1.41655255      -0.42333118        6 
H      -2.77773543       1.94798053      -1.32093758        1 
H      -3.02388178       2.13416715       0.39554396        1 
H      -4.14199542       1.12262542      -0.54081652        1 
