27
Lattice="0.0 0.0 0.0 0.0 0.0 0.0 0.0 0.0 0.0" Properties=species:S:1:pos:R:3:Z:I:1 pbc="F F F"
C      -0.23654460      -1.14208230       0.03346001        6 
C      -0.82097457       0.12927546      -0.05016298        6 
C       1.24169713      -1.32591315       0.17826372        6 
C       0.04017386       1.34611342      -0.23026090        6 
O       1.91688522      -0.70471695      -0.80824723        8 
O       1.76912296      -1.92629168       1.08228702        8 
O       0.72225447       1.62960455       0.89721521        8 
O       0.14283664       1.96937062      -1.25633894        8 
C       1.65366760       2.72557399       0.81190554        6 
C       3.35296100      -0.75597766      -0.72133302        6 
C      -1.04456785      -2.27797586       0.12431411        6 
C      -2.42667528      -2.14939513       0.08247206        6 
C      -3.00363194      -0.88546422      -0.01620248        6 
C      -2.21933813       0.26809213      -0.08778678        6 
H       2.40559167       2.52150459       0.04809868        1 
H       3.69210407      -0.30490753       0.21263189        1 
H      -4.08391066      -0.78849788      -0.03734942        1 
H       1.13236352       3.65095760       0.56340661        1 
H       2.11092916       2.79309318       1.79623341        1 
H       3.71330725      -0.19195227      -1.57841987        1 
H       3.69921405      -1.78947112      -0.76664303        1 
H      -3.05610846      -3.03026572       0.13698736        1 
H      -0.58101208      -3.25120252       0.22947962        1 
C      -2.86649507       1.62650781      -0.21014027        6 
H      -2.65701626       2.06980908      -1.18689166        1 
H      -2.49135806       2.31920574       0.54871855        1 
H      -3.94845260       1.55153227      -0.09063312        1 
