27
Lattice="0.0 0.0 0.0 0.0 0.0 0.0 0.0 0.0 0.0" Properties=species:S:1:pos:R:3:Z:I:1 pbc="F F F"
C       0.36194642      -1.08733408       0.01172350        6 
C      -0.69392192      -0.16273878      -0.08263114        6 
C       1.79505552      -0.70076998      -0.23688211        6 
C      -0.32747018       1.27935523      -0.23933050        6 
O       2.35812955      -0.16770706       0.86315338        8 
O       2.36307746      -0.86625667      -1.28453004        8 
O      -1.15560532       2.09809674       0.44040290        8 
O       0.61676553       1.68197006      -0.87758229        8 
C      -0.87173061       3.50560203       0.33829109        6 
C       3.70659982       0.31485142       0.69990104        6 
C       0.09981537      -2.44044175       0.21723033        6 
C      -1.21343202      -2.88202584       0.32515700        6 
C      -2.26000789      -1.97532171       0.19966128        6 
C      -2.03110470      -0.61019709       0.00219679        6 
H       0.11051572       3.72567185       0.75894144        1 
H       4.36764140      -0.49553972       0.38927724        1 
H      -3.28349447      -2.33114292       0.24961803        1 
H      -0.89518007       3.82448597      -0.70465362        1 
H      -1.65329108       3.99953213       0.91125008        1 
H       3.99746626       0.69565538       1.67626488        1 
H       3.72734728       1.10788189      -0.04898991        1 
H      -1.42226903      -3.93373258       0.48567492        1 
H       0.92281956      -3.14276337       0.27450759        1 
C      -3.22801558       0.30163369      -0.14741640        6 
H      -3.10451663       1.00426252      -0.97325640        1 
H      -3.38962080       0.89449264       0.75538673        1 
H      -4.12542763      -0.29031624      -0.33635734        1 
