27
Lattice="0.0 0.0 0.0 0.0 0.0 0.0 0.0 0.0 0.0" Properties=species:S:1:pos:R:3:Z:I:1 pbc="F F F"
C       0.67881151      -0.74265436      -0.02726389        6 
C      -0.65444552      -0.28486815       0.08819085        6 
C       1.87691680       0.10338260       0.31418003        6 
C      -0.85696649       1.19831017      -0.01626289        6 
O       2.74895798       0.14680858      -0.71299699        8 
O       2.06872805       0.60487605       1.39063087        8 
O      -2.14551235       1.54724500      -0.22060143        8 
O       0.02622025       2.02025991       0.05016343        8 
C      -2.39965367       2.95693613      -0.35438322        6 
C       3.95959244       0.88937754      -0.47202410        6 
C       0.94999331      -2.09530446      -0.22143041        6 
C      -0.09054795      -3.01647704      -0.26037640        6 
C      -1.39548664      -2.58217394      -0.08061269        6 
C      -1.71311922      -1.22634742       0.07646549        6 
H      -2.09920154       3.48644942       0.55066576        1 
H       3.72270716       1.92684516      -0.23267027        1 
H      -2.20238862      -3.30680196      -0.07764565        1 
H      -1.85232946       3.36415723      -1.20564361        1 
H      -3.47288280       3.04090254      -0.51213432        1 
H       4.52605062       0.82651933      -1.39849247        1 
H       4.52017201       0.44752085       0.35343880        1 
H       0.11748052      -4.07029516      -0.40781182        1 
H       1.97784589      -2.42340574      -0.31389261        1 
C      -3.17979875      -0.88825608       0.23357080        6 
H      -3.58020386      -0.41773941      -0.66664391        1 
H      -3.35450114      -0.19460327       1.05580651        1 
H      -3.74468332      -1.80275521       0.42381506        1 
