27
Lattice="0.0 0.0 0.0 0.0 0.0 0.0 0.0 0.0 0.0" Properties=species:S:1:pos:R:3:Z:I:1 pbc="F F F"
C       0.51486370      -0.96558117       0.00360295        6 
C      -0.67679036      -0.22298380       0.10490968        6 
C       1.87236184      -0.37990462       0.29176143        6 
C      -0.54690943       1.26678793       0.18055696        6 
O       2.50333189      -0.02856834      -0.84466477        8 
O       2.34043639      -0.27515195       1.39429024        8 
O      -1.54806871       1.90118590      -0.46569065        8 
O       0.35890829       1.85708424       0.71997332        8 
C      -1.49302892       3.33934109      -0.44956793        6 
C       3.80445056       0.56967296      -0.67685060        6 
C       0.47351354      -2.34080324      -0.22047985        6 
C      -0.75062492      -2.99062568      -0.32029571        6 
C      -1.92857721      -2.26864410      -0.17084343        6 
C      -1.92392093      -0.88471505       0.03011384        6 
H      -1.52061429       3.71039544       0.57601607        1 
H       3.72296055       1.47604991      -0.07560568        1 
H      -2.88093133      -2.78598035      -0.21439352        1 
H      -0.58014049       3.68997570      -0.93307090        1 
H      -2.37070250       3.66708012      -1.00226415        1 
H       4.14775921       0.80073457      -1.68262985        1 
H       4.48496949      -0.12960762      -0.18855537        1 
H      -0.78718622      -4.06044160      -0.49255432        1 
H       1.39863025      -2.89968478      -0.29731729        1 
C      -3.25806755      -0.19063126       0.18894038        6 
H      -3.53958907       0.34294882      -0.72122069        1 
H      -3.24684008       0.54099290       0.99820836        1 
H      -4.03274057      -0.92815374       0.40749108        1 
