27
Lattice="0.0 0.0 0.0 0.0 0.0 0.0 0.0 0.0 0.0" Properties=species:S:1:pos:R:3:Z:I:1 pbc="F F F"
C      -0.13938202      -1.13297588       0.05533109        6 
C      -0.78992617       0.10327866      -0.05801266        6 
C       1.31983227      -1.31383615      -0.24803156        6 
C      -0.02943113       1.37155628      -0.32525860        6 
O       2.11730686      -0.67960527       0.62842429        8 
O       1.72781330      -1.95540856      -1.18580708        8 
O       0.58493948       1.82138109       0.78058310        8 
O      -0.02127916       1.95171982      -1.38438586        8 
C       1.36636264       3.02122691       0.62500865        6 
C       3.53290492      -0.78688691       0.37972929        6 
C      -0.88601919      -2.29403336       0.27416732        6 
C      -2.26305512      -2.21597391       0.43407240        6 
C      -2.90455830      -0.98489514       0.32534622        6 
C      -2.18889435       0.18554919       0.06607175        6 
H       2.15447272       2.86483733      -0.11334264        1 
H       3.84482155      -1.83196350       0.40326189        1 
H      -3.98208672      -0.92794339       0.43745244        1 
H       0.73527390       3.85166190       0.30520062        1 
H       1.79250907       3.21587532       1.60631640        1 
H       4.00854635      -0.22533866       1.18038363        1 
H       3.78029767      -0.36097428      -0.59382088        1 
H      -2.83930105      -3.11398349       0.62577161        1 
H      -0.38084119      -3.25156948       0.31099629        1 
C      -2.91008387       1.50324530      -0.08439952        6 
H      -2.84327520       1.86973720      -1.11210236        1 
H      -2.48013093       2.27264687       0.56337785        1 
H      -3.96466096       1.39719177       0.17407927        1 
