27
Lattice="0.0 0.0 0.0 0.0 0.0 0.0 0.0 0.0 0.0" Properties=species:S:1:pos:R:3:Z:I:1 pbc="F F F"
C      -0.16154730      -1.04562450      -0.22360436        6 
C      -0.78053504       0.18697589       0.09406938        6 
C       1.30435966      -1.31993147      -0.05197345        6 
C      -0.02055820       1.47389566      -0.00061238        6 
O       1.90735556      -0.42589786       0.75630226        8 
O       1.85553167      -2.32150737      -0.44763605        8 
O       0.92479679       1.40323113      -0.96402268        8 
O      -0.30066065       2.50553137       0.56455214        8 
C       1.72375465       2.58054554      -1.15192848        6 
C       3.29192060      -0.67620286       1.04984943        6 
C      -0.93781516      -2.18124208      -0.44868453        6 
C      -2.32324378      -2.11315422      -0.34997101        6 
C      -2.92704108      -0.91804958       0.01377824        6 
C      -2.18362856       0.25106904       0.23096062        6 
H       1.09637203       3.43740925      -1.40148179        1 
H       3.41183893      -1.65030521       1.52625082        1 
H      -4.00585122      -0.87261073       0.11616862        1 
H       2.29042894       2.80219730      -0.24534130        1 
H       2.39601465       2.34497507      -1.97420705        1 
H       3.59169785       0.12165134       1.72567095        1 
H       3.88614601      -0.65010707       0.13482898        1 
H      -2.92629336      -2.99589481      -0.53031608        1 
H      -0.43640986      -3.11594828      -0.66413984        1 
C      -2.93266926       1.51903848       0.56741005        6 
H      -2.73345180       2.31310353      -0.15556582        1 
H      -2.63513151       1.90955678       1.54141252        1 
H      -4.00652521       1.32379855       0.57844393        1 
