27
Lattice="0.0 0.0 0.0 0.0 0.0 0.0 0.0 0.0 0.0" Properties=species:S:1:pos:R:3:Z:I:1 pbc="F F F"
C      -0.10989862      -0.98290229       0.30307716        6 
C      -0.78038732       0.21248729      -0.06635233        6 
C       1.36304019      -1.23328993       0.13501315        6 
C      -0.11994266       1.54804929       0.12362374        6 
O       1.84026963      -0.63567046      -0.97376688        8 
O       1.99288800      -2.04797109       0.76902716        8 
O       1.16463742       1.44535232       0.52014146        8 
O      -0.69563594       2.61368684       0.10523084        8 
C       1.82091980       2.67265823       0.87295128        6 
C       3.21629543      -0.90045852      -1.28663607        6 
C      -0.83494264      -2.14479654       0.55789216        6 
C      -2.21647028      -2.16096078       0.39306751        6 
C      -2.86212242      -1.02482925      -0.06884771        6 
C      -2.17785521       0.18095265      -0.28182844        6 
H       1.83946761       3.35684308       0.02331817        1 
H       3.86517982      -0.53370437      -0.48906804        1 
H      -3.93174169      -1.05193349      -0.24637245        1 
H       1.30970595       3.15322863       1.70882051        1 
H       2.83118008       2.38534251       1.15662912        1 
H       3.40960324      -0.36417842      -2.21317928        1 
H       3.38152457      -1.97087952      -1.41880654        1 
H      -2.77809863      -3.06779048       0.58772540        1 
H      -0.29620181      -3.04087590       0.83813892        1 
C      -2.99745744       1.37343538      -0.71605261        6 
H      -2.51198050       1.93893224      -1.51075461        1 
H      -3.14989466       2.07205124       0.10974301        1 
H      -3.97374850       1.03394492      -1.06854737        1 
