27
Lattice="0.0 0.0 0.0 0.0 0.0 0.0 0.0 0.0 0.0" Properties=species:S:1:pos:R:3:Z:I:1 pbc="F F F"
C       0.68210379      -0.77075554       0.05576438        6 
C      -0.64873118      -0.30694753       0.00419162        6 
C       1.82705504       0.16410735       0.31484620        6 
C      -0.85087146       1.16065286      -0.22280311        6 
O       2.86217229      -0.08676997      -0.50941553        8 
O       1.84989174       0.98369256       1.19907518        8 
O      -2.00328112       1.62351554       0.29967452        8 
O      -0.05585848       1.86827819      -0.79446549        8 
C      -2.24904814       3.03189794       0.12835916        6 
C       4.03337428       0.72516065      -0.30370491        6 
C       0.95729402      -2.13593571       0.06028235        6 
C      -0.08774711      -3.05364740       0.02536740        6 
C      -1.39912898      -2.60189932      -0.01673303        6 
C      -1.71139425      -1.23553890      -0.04078637        6 
H      -1.46870874       3.61357803       0.62063728        1 
H       3.78565930       1.78014492      -0.42670784        1 
H      -2.21028355      -3.32101447      -0.05199212        1 
H      -2.27471726       3.28956515      -0.93146799        1 
H      -3.21562126       3.21382078       0.59303967        1 
H       4.74367302       0.40468119      -1.06254167        1 
H       4.43779405       0.56386899       0.69699146        1 
H       0.12080257      -4.11752450       0.03190974        1 
H       1.98519802      -2.47218299       0.10525893        1 
C      -3.17050112      -0.85074682      -0.14762784        6 
H      -3.35421980      -0.17478871      -0.98521876        1 
H      -3.51250569      -0.33735300       0.75252413        1 
H      -3.78036202      -1.74435644      -0.29042520        1 
