27
Lattice="0.0 0.0 0.0 0.0 0.0 0.0 0.0 0.0 0.0" Properties=species:S:1:pos:R:3:Z:I:1 pbc="F F F"
C       0.72994063       0.73248348       0.07222859        6 
C      -0.62513588       0.34220280       0.02497314        6 
C       1.80311905      -0.29439883      -0.12041354        6 
C      -1.00163490      -1.07832857       0.35354598        6 
O       3.03525767       0.20837141       0.11512256        8 
O       1.61573665      -1.44058286      -0.45110712        8 
O      -1.85897554      -1.59688936      -0.54747550        8 
O      -0.58094001      -1.68433446       1.30569997        8 
C      -2.24859354      -2.96587000      -0.32560055        6 
C       4.12600413      -0.71281103      -0.06097650        6 
C       1.06237512       2.08791723       0.04361214        6 
C       0.06117805       3.05167750      -0.00765126        6 
C      -1.27124795       2.66308062      -0.05890002        6 
C      -1.64106785       1.31264848      -0.03155302        6 
H      -1.36718280      -3.60756330      -0.30220602        1 
H       4.01669090      -1.56441433       0.61215831        1 
H      -2.04968606       3.41742770      -0.10165698        1 
H      -2.79057462      -3.06213624       0.61693643        1 
H      -2.89132742      -3.22295496      -1.16472805        1 
H       5.02372804      -0.14684235       0.17761416        1 
H       4.15916976      -1.07269811      -1.09066111        1 
H       0.32162433       4.10369604      -0.02016101        1 
H       2.10458202       2.37536696       0.04070457        1 
C      -3.11108358       0.95425019      -0.02469767        6 
H      -3.36475689       0.30429378       0.81713772        1 
H      -3.39396896       0.42256589      -0.93502570        1 
H      -3.72007724       1.85621976       0.05390324        1 
