27
Lattice="0.0 0.0 0.0 0.0 0.0 0.0 0.0 0.0 0.0" Properties=species:S:1:pos:R:3:Z:I:1 pbc="F F F"
C      -0.18152891      -1.02602226       0.21065140        6 
C      -0.80584045       0.21459039      -0.05298082        6 
C       1.29753623      -1.25435487       0.12126813        6 
C      -0.03319364       1.49125466       0.04932322        6 
O       1.83076244      -0.61538336      -0.94067755        8 
O       1.91410810      -2.02831004       0.81351020        8 
O       1.06800475       1.33911208       0.81838400        8 
O      -0.38590392       2.56860522      -0.37292883        8 
C       1.88473245       2.50639299       0.99755157        6 
C       3.24181552      -0.80065358      -1.13986700        6 
C      -0.94220513      -2.17981250       0.38116064        6 
C      -2.32687005      -2.12276156       0.25992443        6 
C      -2.94087949      -0.91633564      -0.04538009        6 
C      -2.21072100       0.27122177      -0.19411118        6 
H       2.27892060       2.84642846       0.03799151        1 
H       3.79921205      -0.41658605      -0.28345080        1 
H      -4.01917500      -0.87826146      -0.15493362        1 
H       1.30688183       3.31168334       1.45306118        1 
H       2.69246307       2.19359951       1.65558817        1 
H       3.48305987      -0.23729430      -2.03858638        1 
H       3.47463909      -1.85797731      -1.27400126        1 
H      -2.92223868      -3.01985997       0.38763294        1 
H      -0.43678925      -3.11614731       0.58147697        1 
C      -2.97592155       1.54292278      -0.47292459        6 
H      -2.67087370       1.99081444      -1.41951698        1 
H      -2.79858829       2.29944446       0.29423527        1 
H      -4.04589398       1.33014244      -0.51056346        1 
