27
Lattice="0.0 0.0 0.0 0.0 0.0 0.0 0.0 0.0 0.0" Properties=species:S:1:pos:R:3:Z:I:1 pbc="F F F"
C       0.06557011      -1.03560908       0.22439743        6 
C      -0.81053799       0.01987532      -0.04952836        6 
C       1.54761291      -0.81512343       0.34086422        6 
C      -0.27131454       1.40001085      -0.29606636        6 
O       2.15287922      -1.03091136      -0.84223697        8 
O       2.12826222      -0.50945393       1.35204091        8 
O       0.05998551       2.00386615       0.85669638        8 
O      -0.14091522       1.90087114      -1.38669074        8 
C       0.65076505       3.31390821       0.74504354        6 
C       3.58591377      -0.87549574      -0.86256113        6 
C      -0.42919958      -2.32892133       0.39792050        6 
C      -1.79650918      -2.56265728       0.30745169        6 
C      -2.66562180      -1.51038993       0.03139619        6 
C      -2.19249701      -0.21050478      -0.16026128        6 
H       1.56283831       3.26632413       0.14864600        1 
H       3.86271176       0.13871823      -0.57192208        1 
H      -3.73154272      -1.69847293      -0.04061235        1 
H      -0.04992084       4.00863564       0.27956917        1 
H       0.87476824       3.61501497       1.76537093        1 
H       3.88128642      -1.07444147      -1.88999040        1 
H       4.05460641      -1.58711119      -0.18111893        1 
H      -2.18532877      -3.56475294       0.44774744        1 
H       0.25476895      -3.14386668       0.60328801        1 
C      -3.14455251       0.91433282      -0.48665643        6 
H      -2.95738811       1.30575690      -1.49016068        1 
H      -3.03520729       1.74743587       0.21397435        1 
H      -4.17946966       0.57186983      -0.44067769        1 
