27
Lattice="0.0 0.0 0.0 0.0 0.0 0.0 0.0 0.0 0.0" Properties=species:S:1:pos:R:3:Z:I:1 pbc="F F F"
C       0.07300856      -0.91971734      -0.05647873        6 
C      -0.91429511       0.08594538      -0.03245652        6 
C       1.51279134      -0.62103004      -0.35746395        6 
C      -0.52663689       1.52887822      -0.02258913        6 
O       2.32591663      -1.12417939       0.59046549        8 
O       1.90211134      -0.08566945      -1.36625943        8 
O       0.68429554       1.70844451       0.54623759        8 
O      -1.21759663       2.44593534      -0.40088706        8 
C       1.21321599       3.04433551       0.50782858        6 
C       3.73748192      -0.98025528       0.34591583        6 
C      -0.28241428      -2.26295010       0.04902889        6 
C      -1.62317829      -2.61755305       0.15342997        6 
C      -2.60022034      -1.63070847       0.15905266        6 
C      -2.27710276      -0.27094409       0.07360528        6 
H       1.36738426       3.35611201      -0.52649560        1 
H       4.01546703      -1.47590705      -0.58551725        1 
H      -3.64388827      -1.91324997       0.24301619        1 
H       0.53281197       3.73991142       1.00043761        1 
H       2.16212618       2.99425313       1.03704299        1 
H       4.22717894      -1.45156609       1.19505221        1 
H       4.00618959       0.07534649       0.28423843        1 
H      -1.90532285      -3.66178413       0.22815968        1 
H       0.48828912      -3.02349103       0.03338082        1 
C      -3.40120951       0.73635099       0.12216442        6 
H      -3.49492675       1.27037366      -0.82506460        1 
H      -3.23361642       1.49647191       0.88760795        1 
H      -4.34464254       0.23059006       0.33587958        1 
