27
Lattice="0.0 0.0 0.0 0.0 0.0 0.0 0.0 0.0 0.0" Properties=species:S:1:pos:R:3:Z:I:1 pbc="F F F"
C      -0.18682155      -1.05424732      -0.19391317        6 
C      -0.79254003       0.19275432       0.07886480        6 
C       1.28356568      -1.31515517      -0.06826654        6 
C       0.00102123       1.45951007       0.00876297        6 
O       1.87425458      -0.48221095       0.81281524        8 
O       1.85433459      -2.25125206      -0.57756939        8 
O       0.94531564       1.38179276      -0.95534150        8 
O      -0.23646727       2.47768201       0.61508039        8 
C       1.79238891       2.53146185      -1.10393853        6 
C       3.27670555      -0.69930238       1.04033622        6 
C      -0.97198442      -2.19012198      -0.38429259        6 
C      -2.35660895      -2.10362849      -0.28938286        6 
C      -2.95009377      -0.88714876       0.01953011        6 
C      -2.19502434       0.28017497       0.19889378        6 
H       1.20032912       3.42161558      -1.32072188        1 
H       3.45301420      -1.71480284       1.39758331        1 
H      -4.02930316      -0.82534338       0.10896329        1 
H       2.36859040       2.69670221      -0.19130918        1 
H       2.45308638       2.29778095      -1.93600304        1 
H       3.56268334       0.02955663       1.79538597        1 
H       3.84003588      -0.54160942       0.11878834        1 
H      -2.96876899      -2.98604922      -0.43770201        1 
H      -0.48104369      -3.13526577      -0.57783377        1 
C      -2.92573030       1.57136337       0.48277089        6 
H      -2.67657871       2.34872856      -0.24289851        1 
H      -2.65935394       1.96840487       1.46338370        1 
H      -4.00374545       1.40360391       0.45128119        1 
