27
Lattice="0.0 0.0 0.0 0.0 0.0 0.0 0.0 0.0 0.0" Properties=species:S:1:pos:R:3:Z:I:1 pbc="F F F"
C      -0.11201082      -0.97074577      -0.11120616        6 
C      -0.89632999       0.19996326      -0.05615526        6 
C       1.37828062      -0.98888727      -0.32808944        6 
C      -0.25995435       1.54866197       0.05254445        6 
O       2.03495436      -1.06115626       0.84622489        8 
O       1.91277296      -0.99858775      -1.40633779        8 
O       0.99847419       1.55908525      -0.42801996        8 
O      -0.77914633       2.52696803       0.53979387        8 
C       1.72895805       2.78803655      -0.28906899        6 
C       3.47181189      -1.10773434       0.75810460        6 
C      -0.71598004      -2.22716676      -0.07082436        6 
C      -2.09846694      -2.33438266       0.01018648        6 
C      -2.87745538      -1.18447242       0.03748927        6 
C      -2.30686557       0.09158214       0.01783521        6 
H       1.22435695       3.59367442      -0.82405412        1 
H       3.79223286      -1.98876924       0.20001834        1 
H      -3.95740630      -1.27144434       0.08210362        1 
H       1.82245276       3.05873594       0.76396323        1 
H       2.70504970       2.59145160      -0.72693804        1 
H       3.82353935      -1.15493099       1.78613270        1 
H       3.84863701      -0.21224492       0.26149810        1 
H      -2.56752610      -3.31142827       0.04076675        1 
H      -0.10021918      -3.11783345      -0.11465862        1 
C      -3.23530633       1.28219686       0.06574502        6 
H      -2.99706156       2.01836168      -0.70361440        1 
H      -3.16279026       1.80125699       1.02299252        1 
H      -4.26591061       0.95171550      -0.07768043        1 
