27
Lattice="0.0 0.0 0.0 0.0 0.0 0.0 0.0 0.0 0.0" Properties=species:S:1:pos:R:3:Z:I:1 pbc="F F F"
C       0.54909040      -0.76743540       0.19021846        6 
C      -0.73239677      -0.27452956      -0.11229506        6 
C       1.74831155       0.11108008       0.02029634        6 
C      -0.99864160       1.19355385      -0.30878490        6 
O       2.83930033      -0.61264177      -0.31540456        8 
O       1.78011344       1.30848199       0.18068578        8 
O      -0.92444964       1.84777132       0.85839236        8 
O      -1.37001894       1.68871631      -1.34587583        8 
C      -1.10217868       3.27497470       0.79620817        6 
C       4.06087881       0.13077494      -0.47513576        6 
C       0.71936947      -2.12882980       0.46685013        6 
C      -0.37857753      -2.97845280       0.48750894        6 
C      -1.64247465      -2.48591123       0.17630453        6 
C      -1.84303311      -1.13734645      -0.13033564        6 
H      -0.30152854       3.71862862       0.20283658        1 
H       3.94993491       0.87933823      -1.26082844        1 
H      -2.49527728      -3.15638611       0.17534294        1 
H      -2.06815107       3.52460549       0.35489468        1 
H      -1.04739072       3.61692945       1.82700526        1 
H       4.81199743      -0.60633834      -0.75006189        1 
H       4.33038370       0.62717971       0.45845903        1 
H      -0.24867350      -4.02800848       0.72544467        1 
H       1.71293955      -2.51013789       0.65771368        1 
C      -3.22947947      -0.63610164      -0.45985312        6 
H      -3.28847525      -0.29580801      -1.49625815        1 
H      -3.51046514       0.21095283       0.17229978        1 
H      -3.96824170      -1.42563145      -0.31266487        1 
