27
Lattice="0.0 0.0 0.0 0.0 0.0 0.0 0.0 0.0 0.0" Properties=species:S:1:pos:R:3:Z:I:1 pbc="F F F"
C      -0.17679906      -1.03618558       0.22218776        6 
C      -0.78585921       0.20694650      -0.06880240        6 
C       1.29169596      -1.30463398       0.07749038        6 
C      -0.00678368       1.48067052       0.03438412        6 
O       1.86535939      -0.49956442      -0.84005682        8 
O       1.86689270      -2.23634432       0.58992307        8 
O       0.99712937       1.36428282       0.93209926        8 
O      -0.30194236       2.53480164      -0.47974122        8 
C       1.81810186       2.52732239       1.11648553        6 
C       3.25772588      -0.73864688      -1.10301001        6 
C      -0.95754840      -2.17340803       0.41805738        6 
C      -2.34193283      -2.09650238       0.30714502        6 
C      -2.93777349      -0.88910122      -0.02829798        6 
C      -2.18828262       0.28215518      -0.21030330        6 
H       2.32355868       2.78709102       0.18429758        1 
H       3.84962934      -0.57001945      -0.20155556        1 
H      -4.01570194      -0.83604758      -0.13605428        1 
H       1.21600412       3.37517480       1.44590363        1 
H       2.54203143       2.25113182       1.88011790        1 
H       3.53059129      -0.02819969      -1.88018564        1 
H       3.41189817      -1.76295932      -1.44529917        1 
H      -2.95054602      -2.98068049       0.45973286        1 
H      -0.46301677      -3.11424264       0.62307592        1 
C      -2.93087957       1.56048674      -0.51980900        6 
H      -2.62880504       1.97124681      -1.48410728        1 
H      -2.72956585       2.33739417       0.22079943        1 
H      -4.00546540       1.36973119      -0.53805197        1 
