27
Lattice="0.0 0.0 0.0 0.0 0.0 0.0 0.0 0.0 0.0" Properties=species:S:1:pos:R:3:Z:I:1 pbc="F F F"
C       0.70875123      -0.72265392      -0.01403376        6 
C      -0.64091859      -0.29968264       0.02870211        6 
C       1.83783743       0.21752464       0.29748220        6 
C      -0.90163746       1.15737431      -0.22112017        6 
O       2.92279636      -0.05006101      -0.45887882        8 
O       1.80805822       1.06558891       1.15299341        8 
O      -2.11606369       1.56263879       0.20450553        8 
O      -0.10163220       1.91213121      -0.71943489        8 
C      -2.41168700       2.95844727       0.01567619        6 
C       4.07985621       0.76473891      -0.19722063        6 
C       1.02378770      -2.07807113      -0.07035096        6 
C       0.00941212      -3.03065557      -0.07690500        6 
C      -1.31366667      -2.62268458      -0.01450373        6 
C      -1.67205984      -1.26644908       0.01907382        6 
H      -1.69767956       3.57316356       0.56526240        1 
H       3.83862815       1.81880015      -0.33963966        1 
H      -2.10232399      -3.36713898      -0.01658954        1 
H      -2.36943079       3.21965240      -1.04278197        1 
H      -3.41795222       3.09449774       0.40617006        1 
H       4.83017461       0.44023360      -0.91484851        1 
H       4.43150471       0.61086678       0.82448024        1 
H       0.25286937      -4.08628252      -0.11964441        1 
H       2.06260401      -2.38066326      -0.08500562        1 
C      -3.15149134      -0.94793150       0.01064502        6 
H      -3.42961489      -0.32272852      -0.83997678        1 
H      -3.45045126      -0.40669900       0.90903189        1 
H      -3.72697123      -1.87368243      -0.04459556        1 
