27
Lattice="0.0 0.0 0.0 0.0 0.0 0.0 0.0 0.0 0.0" Properties=species:S:1:pos:R:3:Z:I:1 pbc="F F F"
C       0.00544781      -1.16369769       0.02832381        6 
C      -0.75216649       0.00313817      -0.11887229        6 
C       1.48099196      -1.16451046      -0.25105653        6 
C      -0.05541283       1.30696053      -0.37902563        6 
O       2.18105923      -0.67016379       0.78925970        8 
O       1.97535564      -1.52050283      -1.28962148        8 
O      -0.04562390       2.08022413       0.72356589        8 
O       0.41615561       1.64045268      -1.43807891        8 
C       0.59235310       3.36486925       0.58405431        6 
C       3.60745424      -0.57679488       0.59604046        6 
C      -0.62748306      -2.38017639       0.28723564        6 
C      -2.01047180      -2.42390915       0.41988362        6 
C      -2.76104287      -1.26067731       0.27061781        6 
C      -2.15113238      -0.03200281       0.00788729        6 
H       1.63562885       3.23875560       0.29188357        1 
H       4.03035863      -1.56517035       0.41108101        1 
H      -3.84146419      -1.30435091       0.35801954        1 
H       0.07859151       3.96575960      -0.16794665        1 
H       0.52107007       3.83030357       1.56431522        1 
H       3.99661945      -0.15887809       1.52147548        1 
H       3.83125675       0.07446583      -0.25004620        1 
H      -2.50613965      -3.36599314       0.62489625        1 
H      -0.03767882      -3.28509046       0.37316949        1 
C      -2.97993444       1.22127308      -0.13739672        6 
H      -2.70526312       1.78059205      -1.03597936        1 
H      -2.83570795       1.88447805       0.72020901        1 
H      -4.04169354       0.97862054      -0.20457620        1 
