27
Lattice="0.0 0.0 0.0 0.0 0.0 0.0 0.0 0.0 0.0" Properties=species:S:1:pos:R:3:Z:I:1 pbc="F F F"
C       0.65461009      -0.77631020      -0.15425119        6 
C      -0.64495383      -0.24126061      -0.08968540        6 
C       1.88745176       0.07513092      -0.26432316        6 
C      -0.90970732       1.22543112      -0.29282776        6 
O       2.79532545      -0.30778109       0.66848396        8 
O       2.09726462       0.94270562      -1.07083356        8 
O      -1.54946322       1.74789579       0.78096268        8 
O      -0.59469839       1.87080860      -1.25647580        8 
C      -1.90214109       3.14044398       0.68245049        6 
C       4.06118948       0.37543688       0.62337608        6 
C       0.84333156      -2.15685140      -0.03156105        6 
C      -0.24704022      -3.00716688       0.09040167        6 
C      -1.53184897      -2.47801067       0.13239337        6 
C      -1.75440795      -1.10116996       0.05308143        6 
H      -1.00921958       3.75165537       0.54461021        1 
H       4.55087978       0.21018585      -0.33798952        1 
H      -2.38427645      -3.14272348       0.22392372        1 
H      -2.57988983       3.30299256      -0.15760629        1 
H      -2.39265210       3.38174808       1.62287302        1 
H       4.64864617      -0.05248034       1.43269970        1 
H       3.92246897       1.44719225       0.77310913        1 
H      -0.09694424      -4.07861814       0.15761265        1 
H       1.84959839      -2.55432878      -0.03773460        1 
C      -3.17483270      -0.58407262       0.09635349        6 
H      -3.35820657       0.16702374      -0.67599505        1 
H      -3.39578292      -0.11927496       1.06005357        1 
H      -3.88037318      -1.40210538      -0.05926340        1 
