27
Lattice="0.0 0.0 0.0 0.0 0.0 0.0 0.0 0.0 0.0" Properties=species:S:1:pos:R:3:Z:I:1 pbc="F F F"
C       0.60727275      -0.89711870       0.19406401        6 
C      -0.64432833      -0.29125095      -0.02299380        6 
C       1.86764434      -0.09609830       0.38487709        6 
C      -0.66530839       1.20352442      -0.06494137        6 
O       2.56018814      -0.01191616      -0.76087423        8 
O       2.25171291       0.31521305       1.45160009        8 
O      -1.84516119       1.72741384       0.31903705        8 
O       0.28299638       1.88729761      -0.37745532        8 
C      -1.92505417       3.16509258       0.32404034        6 
C       3.76956313       0.76806333      -0.70527239        6 
C       0.72219035      -2.28232026       0.27451977        6 
C      -0.40779463      -3.07752115       0.12379868        6 
C      -1.64238439      -2.48632604      -0.11643690        6 
C      -1.79471277      -1.09767247      -0.18963177        6 
H      -1.19124371       3.58251491       1.01465326        1 
H       3.52960491       1.80234462      -0.45496955        1 
H      -2.51653082      -3.11334113      -0.25400097        1 
H      -1.74349302       3.56007428      -0.67648021        1 
H      -2.93648736       3.39484455       0.65161102        1 
H       4.19971936       0.70422795      -1.70216117        1 
H       4.45553016       0.36134347       0.03929433        1 
H      -0.32527322      -4.15699862       0.18304061        1 
H       1.69180990      -2.73194553       0.45163107        1 
C      -3.17839933      -0.55641571      -0.47084004        6 
H      -3.17369024       0.18910421      -1.26775778        1 
H      -3.60245915      -0.07383993       0.41192689        1 
H      -3.84001942      -1.37151641      -0.77004340        1 
