27
Lattice="0.0 0.0 0.0 0.0 0.0 0.0 0.0 0.0 0.0" Properties=species:S:1:pos:R:3:Z:I:1 pbc="F F F"
C      -0.20504715      -1.10387248       0.14543230        6 
C      -0.78601630       0.16019379      -0.07890831        6 
C       1.26251404      -1.38217146       0.05276128        6 
C       0.04479700       1.40797881      -0.10849475        6 
O       1.92731601      -0.42547023      -0.62461482        8 
O       1.78766180      -2.39858136       0.44491900        8 
O       0.78220606       1.51473565       1.01591094        8 
O       0.00028453       2.25782408      -0.96407667        8 
C       1.67156855       2.64211815       1.07847098        6 
C       3.33449700      -0.64695521      -0.81945577        6 
C      -1.02084997      -2.22527271       0.31342331        6 
C      -2.40241361      -2.09906673       0.25032989        6 
C      -2.97081019      -0.85444434       0.00243464        6 
C      -2.18477099       0.29174746      -0.16094291        6 
H       2.40359858       2.58780456       0.27032812        1 
H       3.85017603      -0.69024974       0.14131299        1 
H      -4.04986197      -0.75945225      -0.05648882        1 
H       1.11613721       3.57740733       0.99757037        1 
H       2.16312993       2.56958669       2.04606967        1 
H       3.68017835       0.20130852      -1.40594001        1 
H       3.50107785      -1.58054938      -1.35856287        1 
H      -3.03484686      -2.96999296       0.37942246        1 
H      -0.55220960      -3.18789221       0.47232122        1 
C      -2.85774507       1.62359490      -0.39722340        6 
H      -2.59549030       2.02815370      -1.37622820        1 
H      -2.55396159       2.36713168       0.34474515        1 
H      -3.94199960       1.51502815      -0.34099574        1 
