27
Lattice="0.0 0.0 0.0 0.0 0.0 0.0 0.0 0.0 0.0" Properties=species:S:1:pos:R:3:Z:I:1 pbc="F F F"
C      -0.08931836      -0.95327895      -0.21176517        6 
C      -0.82659568       0.22324878       0.04561680        6 
C       1.41022815      -1.07184339      -0.23024397        6 
C      -0.24416412       1.57827799      -0.23946521        6 
O       1.94277513      -0.69888788       0.94483753        8 
O       2.03850464      -1.61813321      -1.10653297        8 
O       1.06155617       1.68696203       0.05940757        8 
O      -0.86475052       2.46778809      -0.77618869        8 
C       1.70212904       2.90997550      -0.34671663        6 
C       3.36757878      -0.84667741       1.06273046        6 
C      -0.74370849      -2.18374107      -0.30364906        6 
C      -2.11131474      -2.26823652      -0.07532683        6 
C      -2.82611672      -1.12252074       0.25018748        6 
C      -2.21744414       0.13579784       0.28244863        6 
H       1.61396488       3.04578773      -1.42558035        1 
H       3.65684787      -1.89256766       0.94633234        1 
H      -3.88821288      -1.19389409       0.45840841        1 
H       1.25220164       3.76391898       0.16152169        1 
H       2.74431285       2.79707904      -0.05626590        1 
H       3.61295625      -0.48866875       2.05997196        1 
H       3.87585874      -0.24960658       0.30340672        1 
H      -2.61348173      -3.22745081      -0.13178182        1 
H      -0.16507206      -3.07119914      -0.52801341        1 
C      -3.08442542       1.33776973       0.57719048        6 
H      -3.33527395       1.87430790      -0.34013066        1 
H      -2.58850516       2.05283517       1.23503347        1 
H      -4.01109453       1.01505456       1.05608595        1 
