27
Lattice="0.0 0.0 0.0 0.0 0.0 0.0 0.0 0.0 0.0" Properties=species:S:1:pos:R:3:Z:I:1 pbc="F F F"
C       0.71383700      -0.74294697      -0.04712018        6 
C      -0.63474118      -0.33720702      -0.03755039        6 
C       1.79682832       0.27771988       0.09104452        6 
C      -1.00195984       1.08826569      -0.35196746        6 
O       3.02299806      -0.25653906      -0.09861339        8 
O       1.61983931       1.44485197       0.34810610        8 
O      -1.73808255       1.64457022       0.62744788        8 
O      -0.69112153       1.65207312      -1.37001143        8 
C      -2.12462248       3.01626219       0.41577245        6 
C       4.13011904       0.65117821       0.03689278        6 
C       1.02999312      -2.10340003       0.01257922        6 
C       0.01836749      -3.05475382       0.06407371        6 
C      -1.31093055      -2.64967445       0.07497139        6 
C      -1.66210564      -1.29634207       0.01480482        6 
H      -1.23826012       3.64086142       0.29970447        1 
H       4.03907841       1.47182143      -0.67597307        1 
H      -2.09925033      -3.39417974       0.11439993        1 
H      -2.74895710       3.10415393      -0.47503874        1 
H      -2.68274812       3.29950751       1.30535037        1 
H       5.01719565       0.05710437      -0.17153356        1 
H       4.16788681       1.05740945       1.04905429        1 
H       0.26586145      -4.10930649       0.10554598        1 
H       2.06820837      -2.40408814       0.03351012        1 
C      -3.12440229      -0.91344697      -0.02732326        6 
H      -3.35065066      -0.28901519      -0.89646721        1 
H      -3.41213782      -0.34801906       0.86130976        1 
H      -3.74994788      -1.80554639      -0.08640730        1 
