27
Lattice="0.0 0.0 0.0 0.0 0.0 0.0 0.0 0.0 0.0" Properties=species:S:1:pos:R:3:Z:I:1 pbc="F F F"
C       0.77253747       0.58053250      -0.17857565        6 
C      -0.59871218       0.26401399       0.06783754        6 
C       1.87297852      -0.37617155       0.21369416        6 
C      -1.04399601      -1.14486565      -0.24359822        6 
O       3.09162788       0.09084154      -0.16195181        8 
O       1.73578923      -1.43001978       0.77794165        8 
O      -2.32217546      -1.39656931       0.12674808        8 
O      -0.34910744      -1.99308470      -0.74176829        8 
C      -2.79900105      -2.72555447      -0.14650202        6 
C       4.20391377      -0.75551158       0.17313984        6 
C       1.15235405       1.90482757      -0.38796088        6 
C       0.21103183       2.92952038      -0.35314355        6 
C      -1.10017169       2.63527157      -0.02715367        6 
C      -1.54050619       1.31454173       0.16677280        6 
H      -2.74794026      -2.94010871      -1.21508283        1 
H       4.26671967      -0.89738068       1.25340511        1 
H      -1.82513798       3.43801702       0.05187543        1 
H      -2.20310754      -3.46273584       0.39357252        1 
H      -3.83103528      -2.73702251       0.19870849        1 
H       5.08488572      -0.23618824      -0.19805779        1 
H       4.09927916      -1.72945078      -0.30777383        1 
H       0.51306477       3.95416433      -0.53672388        1 
H       2.19868412       2.12886606      -0.53618329        1 
C      -3.01843028       1.13954289       0.44872215        6 
H      -3.19269779       0.51007634       1.32041983        1 
H      -3.53863153       0.66815801      -0.38773299        1 
H      -3.47150383       2.11689101       0.62525327        1 
