27
Lattice="0.0 0.0 0.0 0.0 0.0 0.0 0.0 0.0 0.0" Properties=species:S:1:pos:R:3:Z:I:1 pbc="F F F"
C       0.34808651      -1.13013110       0.08834188        6 
C      -0.67206823      -0.15750298       0.02524304        6 
C       1.80943744      -0.79482445       0.15491875        6 
C      -0.27998175       1.25923123       0.31077466        6 
O       2.16888899       0.03646345      -0.84095910        8 
O       2.58308665      -1.29526778       0.93351133        8 
O      -1.09656188       2.16443404      -0.26338244        8 
O       0.68500931       1.57364221       0.96835084        8 
C      -0.77402519       3.54563337      -0.01816765        6 
C       3.53841205       0.47583419      -0.82271348        6 
C       0.04358134      -2.48683726       0.01609494        6 
C      -1.27725938      -2.89228910      -0.13592569        6 
C      -2.28541850      -1.93999959      -0.20395354        6 
C      -2.01796325      -0.56772092      -0.11433648        6 
H      -0.78543224       3.75632657       1.05211482        1 
H       3.73198025       1.04475128       0.08812040        1 
H      -3.31569472      -2.26276262      -0.30703745        1 
H       0.21255824       3.78152350      -0.41945823        1 
H      -1.54399180       4.11684530      -0.53202633        1 
H       3.65166948       1.10687929      -1.70145608        1 
H       4.21644002      -0.37747714      -0.87071189        1 
H      -1.52095166      -3.94697498      -0.19651015        1 
H       0.84578581      -3.21188017       0.07415695        1 
C      -3.19938103       0.37618093      -0.13549546        6 
H      -3.19492357       1.00253422      -1.02895485        1 
H      -3.20002221       1.05000641       0.72338162        1 
H      -4.12928917      -0.19479052      -0.11882084        1 
