27
Lattice="0.0 0.0 0.0 0.0 0.0 0.0 0.0 0.0 0.0" Properties=species:S:1:pos:R:3:Z:I:1 pbc="F F F"
C      -0.16456889      -0.99009572       0.13651214        6 
C      -0.87602812       0.22270719       0.02613398        6 
C       1.33019935      -1.08807295       0.28024112        6 
C      -0.16080767       1.53374473      -0.00133258        6 
O       1.93734965      -0.97174978      -0.91681168        8 
O       1.90394341      -1.31699273       1.31404828        8 
O       1.08516460       1.43741187       0.50542679        8 
O      -0.61958871       2.57788037      -0.40571169        8 
C       1.88463145       2.63033965       0.47924786        6 
C       3.37437619      -1.05166168      -0.90099927        6 
C      -0.84066755      -2.20892822       0.15033889        6 
C      -2.22578258      -2.23681163       0.04629165        6 
C      -2.93268578      -1.04576671      -0.05806157        6 
C      -2.28902989       0.19586669      -0.07292066        6 
H       2.01390674       2.97955068      -0.54633705        1 
H       3.78973190      -0.25532243      -0.28119633        1 
H      -4.01450637      -1.07157267      -0.12728811        1 
H       1.41441026       3.41664816       1.07123931        1 
H       2.83937781       2.34405155       0.91489344        1 
H       3.68231651      -0.93244805      -1.93734309        1 
H       3.70028178      -2.01710438      -0.51123476        1 
H      -2.75309736      -3.18414400       0.05317676        1 
H      -0.27883872      -3.13050447       0.24560607        1 
C      -3.14643385       1.43419500      -0.18003594        6 
H      -2.98361662       1.94978417      -1.12815636        1 
H      -2.91876655       2.15784874       0.60444675        1 
H      -4.20056213       1.16041061      -0.10583777        1 
