27
Lattice="0.0 0.0 0.0 0.0 0.0 0.0 0.0 0.0 0.0" Properties=species:S:1:pos:R:3:Z:I:1 pbc="F F F"
C       0.13992736      -1.20352606       0.11152128        6 
C      -0.67916800      -0.05621012       0.03477856        6 
C       1.63835525      -1.17387417       0.06881025        6 
C      -0.09309941       1.27884592       0.39157938        6 
O       2.11236963      -0.07742340      -0.54997596        8 
O       2.34130636      -2.09033142       0.42687819        8 
O      -0.51794529       2.26340653      -0.42517097        8 
O       0.68176212       1.45664115       1.29945334        8 
C      -0.00613713       3.57786200      -0.14044334        6 
C       3.54318380       0.03028514      -0.63358737        6 
C      -0.42707964      -2.47594847       0.03865775        6 
C      -1.80071661      -2.62228407      -0.11185306        6 
C      -2.60568942      -1.49417985      -0.19894473        6 
C      -2.07357224      -0.20103295      -0.11384929        6 
H      -0.27989187       3.88474565       0.87027784        1 
H       3.97439169       0.09191422       0.36679511        1 
H      -3.67811136      -1.60940831      -0.31440348        1 
H       1.08062116       3.58920506      -0.23617318        1 
H      -0.46318148       4.23263769      -0.87902166        1 
H       3.73206200       0.94666356      -1.18825249        1 
H       3.96105298      -0.83130228      -1.15616560        1 
H      -2.24099306      -3.61138636      -0.16712905        1 
H       0.22718166      -3.33714231       0.08236759        1 
C      -3.03107552       0.96958452      -0.14077674        6 
H      -2.90037295       1.56848509      -1.04377398        1 
H      -2.87890317       1.63682539       0.71079504        1 
H      -4.06141089       0.61164661      -0.10750019        1 
