27
Lattice="0.0 0.0 0.0 0.0 0.0 0.0 0.0 0.0 0.0" Properties=species:S:1:pos:R:3:Z:I:1 pbc="F F F"
C       0.78740818       0.60055490      -0.20912581        6 
C      -0.58181936       0.29175579       0.02927948        6 
C       1.86176078      -0.42980192       0.04688189        6 
C      -1.09623681      -1.08438414      -0.31453145        6 
O       3.08690122       0.15378483       0.12651867        8 
O       1.71706128      -1.61927783       0.16327779        8 
O      -2.15564421      -1.44693410       0.44684508        8 
O      -0.59820564      -1.81838379      -1.12674476        8 
C      -2.68911649      -2.75792136       0.18659583        6 
C       4.18325136      -0.74737496       0.35396248        6 
C       1.18654247       1.93243796      -0.32657015        6 
C       0.25786848       2.96312346      -0.23863588        6 
C      -1.06597356       2.66697648       0.04087817        6 
C      -1.51710790       1.34421090       0.16076917        6 
H      -3.04131404      -2.83154464      -0.84392194        1 
H       4.05459455      -1.27467721       1.30073008        1 
H      -1.78596157       3.47211845       0.13922697        1 
H      -1.92581519      -3.51826132       0.35763765        1 
H      -3.51595162      -2.87728999       0.88361656        1 
H       5.07178517      -0.12026952       0.38194345        1 
H       4.25134258      -1.47861030      -0.45319510        1 
H       0.57459754       3.99290995      -0.35673169        1 
H       2.23541696       2.15331047      -0.45860968        1 
C      -3.00183314       1.14074730       0.38004353        6 
H      -3.20070323       0.61601494       1.31497853        1 
H      -3.45539372       0.54706254      -0.41647773        1 
H      -3.50629836       2.10813124       0.40980363        1 
