27
Lattice="0.0 0.0 0.0 0.0 0.0 0.0 0.0 0.0 0.0" Properties=species:S:1:pos:R:3:Z:I:1 pbc="F F F"
C      -0.12747374      -1.09658340      -0.23567566        6 
C      -0.75594598       0.12325589       0.09581431        6 
C       1.33361388      -1.37725846      -0.02851562        6 
C      -0.00985946       1.42561036       0.14441943        6 
O       2.07823743      -0.27832225       0.18900066        8 
O       1.78626728      -2.49660391       0.05900097        8 
O       0.61663933       1.64867962      -1.02680057        8 
O      -0.08769226       2.24594938       1.02744704        8 
C       1.38605892       2.85856095      -1.10973586        6 
C       3.45288734      -0.50936703       0.54558166        6 
C      -0.90789263      -2.22698355      -0.49674870        6 
C      -2.29290446      -2.15248673      -0.45462527        6 
C      -2.90566953      -0.95829449      -0.09310800        6 
C      -2.16091833       0.19287439       0.18496823        6 
H       0.75873470       3.73089839      -0.92099756        1 
H       3.51433643      -1.12606331       1.44310493        1 
H      -3.98757521      -0.90622194      -0.03357713        1 
H       2.19867143       2.83578439      -0.38084533        1 
H       1.78282837       2.88060968      -2.12228456        1 
H       3.87225906       0.47751566       0.72743040        1 
H       3.97855595      -1.00787126      -0.27004380        1 
H      -2.89286021      -3.02821058      -0.67441195        1 
H      -0.40612777      -3.16446572      -0.69772684        1 
C      -2.88834301       1.46940989       0.53911855        6 
H      -2.63914313       2.28154571      -0.14935779        1 
H      -2.62202828       1.81214813       1.54011304        1 
H      -3.96726720       1.31177690       0.49781312        1 
