27
Lattice="0.0 0.0 0.0 0.0 0.0 0.0 0.0 0.0 0.0" Properties=species:S:1:pos:R:3:Z:I:1 pbc="F F F"
C       0.32155290      -0.86640994      -0.03836606        6 
C      -0.86275188      -0.11083430       0.08627672        6 
C       1.65014332      -0.24286993       0.24958362        6 
C      -0.82471669       1.38841710       0.13096124        6 
O       2.66799396      -0.97825040      -0.24798061        8 
O       1.81849471       0.77732818       0.87536046        8 
O      -0.04977497       1.87575957      -0.85690011        8 
O      -1.49317723       2.07792170       0.86269195        8 
C       0.16120915       3.29776397      -0.84789043        6 
C       3.99137228      -0.49267370       0.03783573        6 
C       0.25095956      -2.24711553      -0.23931884        6 
C      -0.98616435      -2.87624500      -0.31761163        6 
C      -2.15032428      -2.13142387      -0.17749275        6 
C      -2.11768642      -0.74558092       0.02254494        6 
H      -0.79015817       3.83019221      -0.87960107        1 
H       4.13740032       0.49440320      -0.40334374        1 
H      -3.11334181      -2.62752545      -0.23498996        1 
H       0.71008779       3.58020531       0.05215699        1 
H       0.75083862       3.50871454      -1.73731620        1 
H       4.66771082      -1.21678129      -0.41093462        1 
H       4.15068302      -0.43101203       1.11542537        1 
H      -1.04247268      -3.94729100      -0.47566175        1 
H       1.16563853      -2.81876503      -0.31381695        1 
C      -3.42198099       0.00857802       0.13562585        6 
H      -3.47526716       0.83600827      -0.57599194        1 
H      -3.54057260       0.44300298       1.12968092        1 
H      -4.26203231      -0.66096856      -0.05736836        1 
