27
Lattice="0.0 0.0 0.0 0.0 0.0 0.0 0.0 0.0 0.0" Properties=species:S:1:pos:R:3:Z:I:1 pbc="F F F"
C      -0.14314813      -1.15977920      -0.10193000        6 
C      -0.76806926       0.08187584       0.07533543        6 
C       1.31013781      -1.37805083       0.19744248        6 
C       0.02436350       1.33529152       0.32263556        6 
O       2.11831982      -0.59355867      -0.53802599        8 
O       1.70659504      -2.14821504       1.03837255        8 
O       0.50741659       1.83598819      -0.82588467        8 
O       0.13966093       1.87513485       1.39652500        8 
C       1.29045705       3.03886942      -0.71129381        6 
C       3.52761977      -0.70701262      -0.25683816        6 
C      -0.91651311      -2.29777725      -0.35067542        6 
C      -2.29398976      -2.18764059      -0.48218897        6 
C      -2.90975086      -0.95038562      -0.30929380        6 
C      -2.16665053       0.19622560      -0.02202106        6 
H       0.70200120       3.83867913      -0.25940021        1 
H       3.72860990      -0.45319128       0.78493883        1 
H      -3.98800865      -0.86916424      -0.39710056        1 
H       2.17566497       2.85540305      -0.09979965        1 
H       1.57464183       3.29525093      -1.72914600        1 
H       4.01227235      -0.00253602      -0.92876463        1 
H       3.87226793      -1.72358504      -0.45153353        1 
H      -2.89120944      -3.06613004      -0.69845067        1 
H      -0.42974474      -3.26199373      -0.43130927        1 
C      -2.85530756       1.52446119       0.17933952        6 
H      -2.45283084       2.28749070      -0.49368394        1 
H      -2.71791668       1.88642474       1.20150555        1 
H      -3.92567022       1.43806189      -0.01279961        1 
