27
Lattice="0.0 0.0 0.0 0.0 0.0 0.0 0.0 0.0 0.0" Properties=species:S:1:pos:R:3:Z:I:1 pbc="F F F"
C       0.04092677      -1.22540080      -0.00294154        6 
C      -0.70931703      -0.03851157       0.05854048        6 
C       1.53445694      -1.25252982       0.06973775        6 
C      -0.01433870       1.25321226       0.37300033        6 
O       2.08890352      -0.23625535      -0.61979545        8 
O       2.17159589      -2.10710665       0.63664382        8 
O      -0.27344224       2.20244097      -0.54517076        8 
O       0.68449264       1.42849850       1.34138694        8 
C       0.34956435       3.48023577      -0.31612072        6 
C       3.52111992      -0.12841933      -0.53770781        6 
C      -0.60134538      -2.45552483      -0.15136814        6 
C      -1.98522708      -2.50614859      -0.26098758        6 
C      -2.72629473      -1.33034279      -0.20246206        6 
C      -2.11271414      -0.08429950      -0.03628118        6 
H       0.02330890       3.89893546       0.63712525        1 
H       3.82288089       0.05976872       0.49375954        1 
H      -3.80796887      -1.37596531      -0.27180692        1 
H       1.43518424       3.37346898      -0.30840841        1 
H       0.03122473       4.11010939      -1.14358575        1 
H       3.78489994       0.71263420      -1.17489982        1 
H       3.99363064      -1.04497312      -0.89320538        1 
H      -2.48757022      -3.45901167      -0.38289780        1 
H      -0.00428653      -3.35819326      -0.18314082        1 
C      -2.96982907       1.15611628       0.06377814        6 
H      -2.86522392       1.77904248      -0.82729235        1 
H      -2.69243552       1.77203116       0.92332785        1 
H      -4.02118521       0.88491121       0.17330158        1 
