27
Lattice="0.0 0.0 0.0 0.0 0.0 0.0 0.0 0.0 0.0" Properties=species:S:1:pos:R:3:Z:I:1 pbc="F F F"
C       0.22573539      -1.16013303       0.21832119        6 
C      -0.63762699      -0.05116503       0.00573503        6 
C       1.72252620      -1.15045589       0.00630564        6 
C      -0.18492443       1.33450832       0.37895116        6 
O       2.26605981       0.06612004      -0.11046572        8 
O       2.35421694      -2.16541636      -0.19547343        8 
O      -0.71309991       2.28697863      -0.42287702        8 
O       0.59701280       1.58368050       1.26060147        8 
C      -0.33148115       3.64008368      -0.11895850        6 
C       3.66600736       0.10361165      -0.43434765        6 
C      -0.30550223      -2.44973025       0.27462938        6 
C      -1.66996901      -2.66883001       0.14431628        6 
C      -2.50777986      -1.59443524      -0.11065422        6 
C      -2.02389359      -0.28064194      -0.16880191        6 
H      -0.63161848       3.90525519       0.89622155        1 
H       4.24652043      -0.42107527       0.32540112        1 
H      -3.57103617      -1.76217270      -0.24325818        1 
H       0.74883922       3.75964020      -0.21386917        1 
H      -0.85236400       4.25808395      -0.84708264        1 
H       3.92564580       1.15951143      -0.45397381        1 
H       3.84613465      -0.35904204      -1.40631809        1 
H      -2.07090998      -3.67397276       0.20781770        1 
H       0.38119617      -3.27946738       0.37545016        1 
C      -3.04652854       0.81827861      -0.36873384        6 
H      -2.86470493       1.37439585      -1.28906441        1 
H      -3.03444324       1.54378012       0.44812413        1 
H      -4.04707015       0.38494622      -0.41655040        1 
