27
Lattice="0.0 0.0 0.0 0.0 0.0 0.0 0.0 0.0 0.0" Properties=species:S:1:pos:R:3:Z:I:1 pbc="F F F"
C      -0.09995010      -1.18518792      -0.07545178        6 
C      -0.75355466       0.03919165       0.10234340        6 
C       1.36712774      -1.32158546       0.20331825        6 
C       0.04684582       1.28209997       0.36886089        6 
O       2.11120179      -0.64993182      -0.69752845        8 
O       1.82393921      -1.91089036       1.15011616        8 
O       0.21869070       1.99506647      -0.75871205        8 
O       0.44810927       1.62701128       1.45327299        8 
C       0.96598917       3.21930107      -0.62369956        6 
C       3.53263104      -0.64472801      -0.45667168        6 
C      -0.84004953      -2.34059179      -0.33410626        6 
C      -2.22179932      -2.26264750      -0.45731111        6 
C      -2.86761531      -1.04097440      -0.28218630        6 
C      -2.15174151       0.12511407      -0.00247256        6 
H       0.46272844       3.89993082       0.06472107        1 
H       3.74873259      -0.17768471       0.50528167        1 
H      -3.94819962      -0.98812715      -0.36213321        1 
H       1.97070894       3.01127287      -0.25293562        1 
H       1.00696924       3.64344181      -1.62425241        1 
H       3.96110568      -0.06794049      -1.27304828        1 
H       3.92170021      -1.66374159      -0.45890857        1 
H      -2.79863139      -3.15502159      -0.67209335        1 
H      -0.33057984      -3.29189406      -0.43002274        1 
C      -2.86510230       1.44207291       0.18618610        6 
H      -2.61564651       2.14181539      -0.61695726        1 
H      -2.58413501       1.91176547       1.13264216        1 
H      -3.94693940       1.30096922       0.18751423        1 
