27
Lattice="0.0 0.0 0.0 0.0 0.0 0.0 0.0 0.0 0.0" Properties=species:S:1:pos:R:3:Z:I:1 pbc="F F F"
C      -0.11036369      -1.09554405      -0.05200249        6 
C      -0.81121804       0.11595308      -0.05964924        6 
C       1.36661602      -1.17138744      -0.31515421        6 
C      -0.10728886       1.40770845      -0.36512838        6 
O       2.08416845      -0.83404204       0.77049449        8 
O       1.85167896      -1.52242435      -1.36250735        8 
O       0.57506403       1.86985510       0.69696342        8 
O      -0.15106086       1.96754330      -1.43323365        8 
C       1.32369065       3.08352455       0.48442344        6 
C       3.51648461      -0.89334792       0.62217595        6 
C      -0.79565491      -2.29829773       0.13094554        6 
C      -2.17000288      -2.28792340       0.33501217        6 
C      -2.86365224      -1.08061162       0.33148306        6 
C      -2.20579316       0.13257824       0.12003422        6 
H       2.05238804       2.94218862      -0.31517199        1 
H       3.83313759      -1.91247873       0.39477785        1 
H      -3.93739132      -1.07725312       0.48560355        1 
H       0.65477896       3.90315529       0.21819908        1 
H       1.82178819       3.28341916       1.43010926        1 
H       3.91806143      -0.57114507       1.58000142        1 
H       3.84412784      -0.22960840      -0.17927178        1 
H      -2.70253105      -3.21951282       0.48931253        1 
H      -0.24953304      -3.23388774       0.11015903        1 
C      -2.98038485       1.42703435       0.07317282        6 
H      -2.96256993       1.85570599      -0.93258205        1 
H      -2.55646727       2.17224714       0.75254365        1 
H      -4.02124120       1.26625190       0.35802041        1 
