27
Lattice="0.0 0.0 0.0 0.0 0.0 0.0 0.0 0.0 0.0" Properties=species:S:1:pos:R:3:Z:I:1 pbc="F F F"
C       0.68734155      -0.76885528      -0.00677301        6 
C      -0.64876800      -0.33843716       0.06224519        6 
C       1.78379808       0.23926464      -0.10351825        6 
C      -0.97238163       1.10074423       0.35932459        6 
O       2.98950046      -0.29361681       0.18410701        8 
O       1.62857216       1.39482704      -0.42288625        8 
O      -1.64027387       1.67831582      -0.65419221        8 
O      -0.70018113       1.65015606       1.39685382        8 
C      -1.98037464       3.06621458      -0.46953798        6 
C       4.11261076       0.59890393       0.07592394        6 
C       0.97485927      -2.13299699      -0.11369469        6 
C      -0.05887408      -3.06076695      -0.15199085        6 
C      -1.37934761      -2.62936394      -0.08452799        6 
C      -1.69840042      -1.27224686       0.02988499        6 
H      -2.61349122       3.19112614       0.41041117        1 
H       4.20027134       0.97897980      -0.94318204        1 
H      -2.18396328      -3.35695039      -0.10909173        1 
H      -1.07281591       3.65935010      -0.35100051        1 
H      -2.51410488       3.35495808      -1.37217206        1 
H       4.98216039       0.00108173       0.33967397        1 
H       3.99869218       1.43783542       0.76377467        1 
H       0.16282338      -4.11837765      -0.23756870        1 
H       2.00566199      -2.45333989      -0.17827210        1 
C      -3.14524580      -0.84833095       0.13598617        6 
H      -3.45411708      -0.28025332      -0.74470332        1 
H      -3.31235948      -0.21101018       1.00906240        1 
H      -3.79510456      -1.71994251       0.22830515        1 
