27
Lattice="0.0 0.0 0.0 0.0 0.0 0.0 0.0 0.0 0.0" Properties=species:S:1:pos:R:3:Z:I:1 pbc="F F F"
C       0.04125600      -1.22167924      -0.11502585        6 
C      -0.68205241      -0.01197231      -0.03407768        6 
C       1.53389746      -1.33457001      -0.00040791        6 
C      -0.03796551       1.30213363      -0.37932209        6 
O       2.14741475      -0.15218639       0.16584628        8 
O       2.12195248      -2.39165966       0.05300509        8 
O      -0.21317562       2.22161742       0.59127308        8 
O       0.56364529       1.51398462      -1.40132057        8 
C       0.36194991       3.51598801       0.33416682        6 
C       3.57490692      -0.19415510       0.32858275        6 
C      -0.64123421      -2.44050984      -0.06448739        6 
C      -2.02440427      -2.47254586       0.04478568        6 
C      -2.73267729      -1.28067180       0.13573042        6 
C      -2.08600070      -0.04087945       0.08786803        6 
H       1.43912047       3.42700269       0.18696619        1 
H       3.84007429      -0.75507409       1.22617717        1 
H      -3.81347028      -1.30400093       0.22649564        1 
H      -0.08514534       3.96345135      -0.55515410        1 
H       0.14189167       4.11209424       1.21695203        1 
H       3.88402273       0.84483019       0.41667604        1 
H       4.04162779      -0.66108610      -0.53967594        1 
H      -2.54755497      -3.42146954       0.07373851        1 
H      -0.06057226      -3.35334211      -0.08859362        1 
C      -2.92233547       1.21848438       0.12098285        6 
H      -2.69400815       1.87707634      -0.72176555        1 
H      -2.74648713       1.79081598       1.03407929        1 
H      -3.98349338       0.96992677       0.06910460        1 
