27
Lattice="0.0 0.0 0.0 0.0 0.0 0.0 0.0 0.0 0.0" Properties=species:S:1:pos:R:3:Z:I:1 pbc="F F F"
C       0.44071066      -0.86565227      -0.24974591        6 
C      -0.74452998      -0.20550398       0.09531777        6 
C       1.74880386      -0.13465399      -0.23725805        6 
C      -0.74677562       1.27728936       0.34699657        6 
O       2.61275020      -0.72299965       0.61373426        8 
O       2.03099620       0.81396340      -0.92884197        8 
O      -0.85991925       1.95445311      -0.80378488        8 
O      -0.71075637       1.78889683       1.44032557        8 
C      -0.81385311       3.39136801      -0.70539713        6 
C       3.93110477      -0.14450475       0.67333049        6 
C       0.42732773      -2.24058891      -0.49786998        6 
C      -0.77396234      -2.93736590      -0.45500286        6 
C      -1.95079602      -2.27517348      -0.11421875        6 
C      -1.95909353      -0.90783190       0.17099460        6 
H      -1.62444706       3.75840909      -0.07407762        1 
H       4.40739906      -0.18067091      -0.30775859        1 
H      -2.88334133      -2.82768424      -0.06778171        1 
H       0.14450294       3.70424663      -0.28922198        1 
H      -0.92298374       3.75204180      -1.72525684        1 
H       4.47861523      -0.75082715       1.39110926        1 
H       3.87478482       0.89189611       1.00865412        1 
H      -0.79350516      -3.99952937      -0.67061943        1 
H       1.35382371      -2.75377184      -0.72323064        1 
C      -3.24211483      -0.20851880       0.54951232        6 
H      -3.46526028       0.61288539      -0.13823130        1 
H      -3.17659858       0.21645354       1.55467623        1 
H      -4.08339826      -0.90296344       0.52651749        1 
