27
Lattice="0.0 0.0 0.0 0.0 0.0 0.0 0.0 0.0 0.0" Properties=species:S:1:pos:R:3:Z:I:1 pbc="F F F"
C       0.45440327      -0.84493328      -0.05920349        6 
C      -0.79528448      -0.21573433       0.09844681        6 
C       1.70996077      -0.06898039       0.16876724        6 
C      -0.92175946       1.27779663       0.21806243        6 
O       2.81496996      -0.80596596      -0.07632248        8 
O       1.75949650       1.08252363       0.53540320        8 
O      -0.50026122       1.88170878      -0.90696823        8 
O      -1.45471971       1.84916751       1.13738223        8 
C      -0.49538318       3.31996215      -0.88089274        6 
C       4.07292441      -0.14438768       0.14244792        6 
C       0.51365399      -2.22594413      -0.27727063        6 
C      -0.65651585      -2.97033442      -0.35089569        6 
C      -1.88713352      -2.34439825      -0.18392470        6 
C      -1.98248969      -0.96725540       0.04194677        6 
H      -1.49195698       3.70459598      -0.65976359        1 
H       4.16731123       0.72184776      -0.51410165        1 
H      -2.79869766      -2.93028441      -0.23683959        1 
H       0.20910454       3.66956041      -0.12440579        1 
H      -0.17495776       3.62665302      -1.87407075        1 
H       4.83284426      -0.88689642      -0.09086033        1 
H       4.15768893       0.18091628       1.18041934        1 
H      -0.61029423      -4.03899892      -0.52682726        1 
H       1.47743125      -2.70564818      -0.37449259        1 
C      -3.34299706      -0.32909574       0.19790774        6 
H      -3.49128192       0.48213818      -0.52033758        1 
H      -3.46441867       0.10080456       1.19393503        1 
H      -4.13079567      -1.06712979       0.03820573        1 
