27
Lattice="0.0 0.0 0.0 0.0 0.0 0.0 0.0 0.0 0.0" Properties=species:S:1:pos:R:3:Z:I:1 pbc="F F F"
C      -0.15545107      -1.19638535       0.15563239        6 
C      -0.73821396       0.06038100      -0.05816555        6 
C       1.30208013      -1.45013555      -0.06216181        6 
C       0.10566524       1.27818315      -0.31489834        6 
O       2.07751368      -0.47849883       0.45774355        8 
O       1.73491319      -2.39111434      -0.68296576        8 
O       0.36166919       1.93609985       0.82828553        8 
O       0.44034586       1.66410642      -1.40809410        8 
C       1.16016354       3.12709508       0.70272890        6 
C       3.48589125      -0.57984937       0.17438504        6 
C      -0.96931602      -2.31037381       0.38583931        6 
C      -2.34750073      -2.16280971       0.45101110        6 
C      -2.92081618      -0.91129182       0.23639370        6 
C      -2.13504951       0.21342161      -0.02390810        6 
H       2.13102397       2.88640536       0.26660096        1 
H       3.88932647      -1.50806854       0.58098190        1 
H      -3.99973922      -0.80183312       0.26760766        1 
H       0.65657393       3.86195551       0.07259525        1 
H       1.27763121       3.50435209       1.71588704        1 
H       3.94064283       0.28083268       0.65950050        1 
H       3.65719657      -0.55282371      -0.90265294        1 
H      -2.97797472      -3.02238178       0.64766847        1 
H      -0.50833840      -3.28346591       0.50039649        1 
C      -2.77677003       1.55698120      -0.27356219        6 
H      -2.52785402       1.93230669      -1.27004505        1 
H      -2.43492845       2.29979002       0.45297650        1 
H      -3.86294539       1.48786813      -0.19904163        1 
