27
Lattice="0.0 0.0 0.0 0.0 0.0 0.0 0.0 0.0 0.0" Properties=species:S:1:pos:R:3:Z:I:1 pbc="F F F"
C       0.74850787       0.64744087       0.11814536        6 
C      -0.61742458       0.28821193      -0.05793891        6 
C       1.85510545      -0.29967470      -0.26454946        6 
C      -0.98116029      -1.14530844       0.23254483        6 
O       3.02994491       0.05230766       0.30949624        8 
O       1.74072704      -1.24983186      -0.99522235        8 
O      -2.24944438      -1.45857699      -0.11775556        8 
O      -0.22656485      -1.96275139       0.69775653        8 
C      -2.64451936      -2.82085745       0.12194140        6 
C       4.14946084      -0.79157415      -0.01207235        6 
C       1.10704821       1.98400599       0.27490050        6 
C       0.13549736       2.98094964       0.25550797        6 
C      -1.18620484       2.64049037       0.02569950        6 
C      -1.59845894       1.30411134      -0.11170349        6 
H      -2.02184687      -3.50428653      -0.45725113        1 
H       3.95100136      -1.81795017       0.30043891        1 
H      -1.93823333       3.42054483      -0.02133886        1 
H      -2.55413602      -3.06673527       1.18112042        1 
H      -3.68250081      -2.87974066      -0.19938504        1 
H       4.99204312      -0.37797006       0.53778956        1 
H       4.34495690      -0.77721486      -1.08565841        1 
H       0.41691470       4.01927843       0.38812558        1 
H       2.15338506       2.23728709       0.37424840        1 
C      -3.08422346       1.07030193      -0.28471457        6 
H      -3.51275111       0.53718414       0.56620121        1 
H      -3.29834100       0.47008458      -1.16892746        1 
H      -3.59582149       2.02974097      -0.38073512        1 
