27
Lattice="0.0 0.0 0.0 0.0 0.0 0.0 0.0 0.0 0.0" Properties=species:S:1:pos:R:3:Z:I:1 pbc="F F F"
C      -0.13480982      -1.12336708      -0.02832396        6 
C      -0.79537628       0.10996469       0.06290437        6 
C       1.32722014      -1.29755833       0.26784759        6 
C      -0.05193302       1.38875861       0.32781767        6 
O       2.11770507      -0.68698324      -0.63087437        8 
O       1.74270663      -1.92956671       1.20901826        8 
O       0.62079525       1.80533841      -0.75680211        8 
O      -0.10314508       2.00370828       1.36604502        8 
C       1.39202093       3.01104990      -0.59796001        6 
C       3.53554154      -0.80609660      -0.40378211        6 
C      -0.87094997      -2.29270963      -0.23898535        6 
C      -2.24670227      -2.22767991      -0.41418871        6 
C      -2.89782851      -0.99985234      -0.33155352        6 
C      -2.19395485       0.17923697      -0.07932137        6 
H       0.74429235       3.84994078      -0.33931523        1 
H       3.80381868      -0.37188845       0.56050945        1 
H      -3.97413335      -0.95200343      -0.45843740        1 
H       2.13929950       2.88027228       0.18641600        1 
H       1.87039648       3.17506773      -1.56066982        1 
H       4.00387027      -0.25884940      -1.21858229        1 
H       3.83660802      -1.85458685      -0.42032705        1 
H      -2.81402496      -3.13263190      -0.59977469        1 
H      -0.35780357      -3.24646631      -0.25993212        1 
C      -2.92881330       1.49293095       0.03732441        6 
H      -2.50290069       2.25118366      -0.62621311        1 
H      -2.87153316       1.88462875       1.05597835        1 
H      -3.98053934       1.36966924      -0.22514975        1 
