27
Lattice="0.0 0.0 0.0 0.0 0.0 0.0 0.0 0.0 0.0" Properties=species:S:1:pos:R:3:Z:I:1 pbc="F F F"
C       0.55140590      -0.78745750       0.13736333        6 
C      -0.73883314      -0.28427582      -0.10796605        6 
C       1.73891385       0.09873166      -0.05392061        6 
C      -1.00486068       1.18649884      -0.28340967        6 
O       2.88517923      -0.61027096      -0.14444469        8 
O       1.71064940       1.30633079      -0.11326380        8 
O      -0.88052158       1.83300503       0.88612389        8 
O      -1.41637294       1.68939340      -1.30051869        8 
C      -1.04449936       3.26192556       0.83493554        6 
C       4.08734370       0.15839341      -0.32570249        6 
C       0.72466217      -2.15320011       0.39193108        6 
C      -0.37515898      -2.99969120       0.43246940        6 
C      -1.64725911      -2.49659670       0.17685181        6 
C      -1.85317012      -1.14165993      -0.09751882        6 
H      -0.26487910       3.69734773       0.20818524        1 
H       4.03573545       0.73160291      -1.25253723        1 
H      -2.50258344      -3.16367131       0.19519086        1 
H      -2.02540155       3.52379011       0.43564496        1 
H      -0.94282736       3.60113396       1.86324366        1 
H       4.89178621      -0.57235720      -0.37101277        1 
H       4.23338477       0.84196714       0.51191164        1 
H      -0.24144448      -4.05401311       0.64595139        1 
H       1.72190107      -2.53972850       0.54823920        1 
C      -3.24919588      -0.62974059      -0.36408360        6 
H      -3.34693512      -0.27225702      -1.39168506        1 
H      -3.50165899       0.20795878       0.29204084        1 
H      -3.98511164      -1.41886489      -0.20102787        1 
