27
Lattice="0.0 0.0 0.0 0.0 0.0 0.0 0.0 0.0 0.0" Properties=species:S:1:pos:R:3:Z:I:1 pbc="F F F"
C       0.75190377       0.69977756      -0.15937294        6 
C      -0.60439934       0.33193628      -0.01518155        6 
C       1.82813412      -0.33652384      -0.01362480        6 
C      -1.06513276      -1.06750239      -0.33450811        6 
O       3.04250210       0.23142193       0.18375858        8 
O       1.67799495      -1.53197100      -0.07532379        8 
O      -1.81211473      -1.58912837       0.66197217        8 
O      -0.79173896      -1.65807494      -1.34563214        8 
C      -2.29035528      -2.93113860       0.44819787        6 
C       4.14131643      -0.68786555       0.31057624        6 
C       1.10152625       2.05289330      -0.16327457        6 
C       0.12133238       3.03304857      -0.06929097        6 
C      -1.21010327       2.66663329       0.08183597        6 
C      -1.59817272       1.32270704       0.10042702        6 
H      -2.94870245      -2.96898832      -0.42156374        1 
H       3.98880545      -1.34847677       1.16543083        1 
H      -1.97318915       3.43306255       0.16567282        1 
H      -1.45083791      -3.60985106       0.29365946        1 
H      -2.83594675      -3.19111752       1.35275105        1 
H       5.02196739      -0.06652366       0.45794707        1 
H       4.24078525      -1.29126665      -0.59310696        1 
H       0.39807964       4.08063900      -0.09459170        1 
H       2.14518784       2.32630629      -0.22478619        1 
C      -3.07013900       0.98508427       0.19755044        6 
H      -3.29934188       0.46620077       1.13021721        1 
H      -3.38904491       0.33182275      -0.61948702        1 
H      -3.67121347       1.89448572       0.15028059        1 
