27
Lattice="0.0 0.0 0.0 0.0 0.0 0.0 0.0 0.0 0.0" Properties=species:S:1:pos:R:3:Z:I:1 pbc="F F F"
C       0.75078188       0.67821459       0.11392143        6 
C      -0.61390170       0.31417816      -0.01775628        6 
C       1.83148574      -0.32673200      -0.17246872        6 
C      -1.00817562      -1.10025000       0.31826307        6 
O       3.05499311       0.14251519       0.16712985        8 
O       1.66251084      -1.42282263      -0.64528820        8 
O      -2.08686946      -1.52038477      -0.37800653        8 
O      -0.40829737      -1.80817249       1.08661584        8 
C      -2.49860485      -2.87758571      -0.13327759        6 
C       4.15158653      -0.75438765      -0.08062984        6 
C       1.10978814       2.02411749       0.16798595        6 
C       0.13406689       3.01497656       0.11759323        6 
C      -1.19747485       2.66013100      -0.03021078        6 
C      -1.60251263       1.31779075      -0.08049837        6 
H      -1.70066813      -3.56884763      -0.40795001        1 
H       4.02863084      -1.67232174       0.49640077        1 
H      -1.95596524       3.43374799      -0.08073317        1 
H      -2.74960919      -3.01885010       0.91917141        1 
H      -3.37387529      -3.03125150      -0.76116085        1 
H       5.04220118      -0.21711171       0.23794987        1 
H       4.21010558      -1.00415277      -1.14119608        1 
H       0.41735200       4.05979015       0.17192642        1 
H       2.15704897       2.28637815       0.22069244        1 
C      -3.08820815       1.03681937      -0.15601710        6 
H      -3.42696586       0.40839174       0.67054129        1 
H      -3.35017950       0.51372897      -1.07649642        1 
H      -3.64598927       1.97413523      -0.11779360        1 
