27
Lattice="0.0 0.0 0.0 0.0 0.0 0.0 0.0 0.0 0.0" Properties=species:S:1:pos:R:3:Z:I:1 pbc="F F F"
C       0.74202848       0.69710174      -0.07043994        6 
C      -0.62058051       0.31964935       0.02713398        6 
C       1.82853840      -0.29643167       0.22828349        6 
C      -0.97448787      -1.10779203      -0.29302209        6 
O       3.02413247       0.10954675      -0.25569157        8 
O       1.67947958      -1.32994317       0.83085849        8 
O      -2.09771057      -1.52407158       0.33017027        8 
O      -0.31169626      -1.82884217      -0.99604805        8 
C      -2.47692332      -2.89122816       0.08828612        6 
C       4.12660122      -0.78048373      -0.00614574        6 
C       1.09231326       2.04462340      -0.11988797        6 
C       0.10610540       3.02640161      -0.08964506        6 
C      -1.22563693       2.65904240       0.02210774        6 
C      -1.62064333       1.31311205       0.06177819        6 
H      -2.64190000      -3.06055270      -0.97684496        1 
H       4.29836941      -0.88585977       1.06645819        1 
H      -1.99197163       3.42590899       0.05244886        1 
H      -1.69786891      -3.56745998       0.44284570        1 
H      -3.39807038      -3.03842457       0.64843126        1 
H       4.98549144      -0.31989439      -0.48932343        1 
H       3.92355556      -1.76322941      -0.43403573        1 
H       0.38060189       4.07399597      -0.13555026        1 
H       2.13855563       2.31561881      -0.15427173        1 
C      -3.10546757       1.02079668       0.09762061        6 
H      -3.38758630       0.49303661       1.00940664        1 
H      -3.41737333       0.39188615      -0.73897447        1 
H      -3.66868852       1.95427670       0.04740248        1 
