27
Lattice="0.0 0.0 0.0 0.0 0.0 0.0 0.0 0.0 0.0" Properties=species:S:1:pos:R:3:Z:I:1 pbc="F F F"
C      -0.14340732      -0.99697278       0.27216000        6 
C      -0.77262163       0.22934989      -0.06366733        6 
C       1.32130091      -1.27866068       0.09051458        6 
C      -0.04722267       1.53007530       0.11201730        6 
O       1.84846899      -0.56216321      -0.92223719        8 
O       1.91229007      -2.18281126       0.63430481        8 
O       1.11945228       1.36855921       0.77290851        8 
O      -0.50044403       2.62759357      -0.12519012        8 
C       1.85612742       2.56566552       1.06306019        6 
C       3.21993718      -0.84482149      -1.24176767        6 
C      -0.90567326      -2.13904338       0.50358563        6 
C      -2.28979416      -2.09751697       0.36668927        6 
C      -2.90087469      -0.92299663      -0.04349184        6 
C      -2.17432577       0.26015300      -0.24700255        6 
H       2.13889846       3.07365748       0.13927888        1 
H       3.86369567      -0.62441539      -0.38827863        1 
H      -3.97523905      -0.90194817      -0.18946817        1 
H       1.26100689       3.24323001       1.67718278        1 
H       2.73985313       2.23453409       1.60424716        1 
H       3.46026442      -0.19528661      -2.08065130        1 
H       3.34071502      -1.89310118      -1.51939833        1 
H      -2.88229586      -2.98756818       0.54652496        1 
H      -0.39513930      -3.06195516       0.74706776        1 
C      -2.95198501       1.49794055      -0.62635488        6 
H      -2.53554232       1.98337006      -1.50904441        1 
H      -2.93145677       2.24504706       0.17028708        1 
H      -3.99171640       1.23084992      -0.82588590        1 
