27
Lattice="0.0 0.0 0.0 0.0 0.0 0.0 0.0 0.0 0.0" Properties=species:S:1:pos:R:3:Z:I:1 pbc="F F F"
C      -0.07341842      -0.96350694      -0.18091150        6 
C      -0.86533288       0.17788378       0.04748250        6 
C       1.42646723      -0.94725107      -0.30109201        6 
C      -0.29248986       1.54750072      -0.14021423        6 
O       2.00231559      -0.92030995       0.91269527        8 
O       2.03280269      -1.09639056      -1.33399212        8 
O       1.00420212       1.62208270       0.21854837        8 
O      -0.89333271       2.48014014      -0.62113618        8 
C       1.67641034       2.85748701      -0.08659233        6 
C       3.44023444      -0.95283760       0.92529850        6 
C      -0.65900527      -2.22817161      -0.23900925        6 
C      -2.02555628      -2.37038840      -0.03285936        6 
C      -2.80447815      -1.25020983       0.23355505        6 
C      -2.25675619       0.03532885       0.25464858        6 
H       1.65517016       3.04364046      -1.16122974        1 
H       3.80831661      -1.86150836       0.44639368        1 
H      -3.86757436      -1.36767435       0.41366611        1 
H       1.20070785       3.68917680       0.43449186        1 
H       2.69841804       2.72172261       0.25977654        1 
H       3.72049393      -0.93055401       1.97591025        1 
H       3.84236265      -0.08396827       0.40135071        1 
H      -2.48056564      -3.35383572      -0.06957981        1 
H      -0.03903019      -3.09553681      -0.43213551        1 
C      -3.17856145       1.20495993       0.50569604        6 
H      -3.38403313       1.74695733      -0.41992716        1 
H      -2.74768310       1.92757437       1.20058708        1 
H      -4.12457910       0.85003596       0.91893079        1 
