27
Lattice="0.0 0.0 0.0 0.0 0.0 0.0 0.0 0.0 0.0" Properties=species:S:1:pos:R:3:Z:I:1 pbc="F F F"
C       0.19073294      -0.97303322       0.25692101        6 
C      -0.80430283      -0.03690768      -0.04740760        6 
C       1.64208253      -0.58849456       0.31673566        6 
C      -0.45086756       1.40013660      -0.30549367        6 
O       2.28617890      -1.02839253      -0.78258087        8 
O       2.18137749      -0.00929395       1.22608699        8 
O      -0.15266293       2.04038653       0.83403057        8 
O      -0.45421917       1.91979871      -1.39611547        8 
C       0.26098344       3.41509161       0.70530751        6 
C       3.70289416      -0.76633126      -0.83517970        6 
C      -0.14693575      -2.31406644       0.45125940        6 
C      -1.47712326      -2.70899647       0.37683076        6 
C      -2.46425459      -1.77484632       0.07473580        6 
C      -2.14903217      -0.43356450      -0.15282381        6 
H       1.14696340       3.48312338       0.07290544        1 
H       3.89309122       0.30660181      -0.78671505        1 
H      -3.49996269      -2.09067784       0.00876958        1 
H      -0.54047482       4.01527492       0.27197961        1 
H       0.48656355       3.74161328       1.71737606        1 
H       4.03451184      -1.17251157      -1.78779969        1 
H       4.21162316      -1.26059273      -0.00592073        1 
H      -1.74507636      -3.74602741       0.54415371        1 
H       0.62991410      -3.03966246       0.66074763        1 
C      -3.23101876       0.55658926      -0.50996753        6 
H      -3.11210112       0.91186440      -1.53690929        1 
H      -3.20271807       1.43423530       0.14226883        1 
H      -4.21808532       0.10079664      -0.41726796        1 
