27
Lattice="0.0 0.0 0.0 0.0 0.0 0.0 0.0 0.0 0.0" Properties=species:S:1:pos:R:3:Z:I:1 pbc="F F F"
C      -0.12370339      -1.19123946       0.11330086        6 
C      -0.75133469       0.04466147      -0.08042627        6 
C       1.33842957      -1.36451586      -0.16646686        6 
C       0.07177608       1.27341224      -0.34565965        6 
O       2.10111269      -0.61522056       0.65383351        8 
O       1.77719635      -2.04116062      -1.06267022        8 
O       0.27659396       1.96991354       0.78572146        8 
O       0.45632618       1.62432209      -1.43435345        8 
C       1.05075660       3.17716345       0.65132773        6 
C       3.51616734      -0.62856666       0.37887542        6 
C      -0.89087235      -2.33149013       0.36305013        6 
C      -2.27194137      -2.22622028       0.46758377        6 
C      -2.89138975      -0.99328528       0.27555074        6 
C      -2.14938301       0.15708693      -0.00094153        6 
H       2.04810065       2.94687081       0.27344293        1 
H       3.90735938      -1.64441634       0.44681179        1 
H      -3.97187070      -0.91903985       0.33863845        1 
H       0.56017323       3.87223033      -0.03178245        1 
H       1.10785268       3.59592244       1.65327231        1 
H       3.96351520       0.00737318       1.13922303        1 
H       3.70782278      -0.23406606      -0.62014723        1 
H      -2.86914690      -3.10630701       0.67728421        1 
H      -0.40102108      -3.29236837       0.46449804        1 
C      -2.83558448       1.48402169      -0.21816442        6 
H      -2.56026396       1.91642459      -1.18400365        1 
H      -2.55622866       2.20346970       0.55720326        1 
H      -3.92015012       1.36835446      -0.19648430        1 
