27
Lattice="0.0 0.0 0.0 0.0 0.0 0.0 0.0 0.0 0.0" Properties=species:S:1:pos:R:3:Z:I:1 pbc="F F F"
C       0.06900323      -0.95169778       0.14607749        6 
C      -0.90187560       0.05122341       0.00762802        6 
C       1.51211297      -0.60554012       0.35598065        6 
C      -0.50434386       1.48901688       0.13867707        6 
O       2.28179847      -1.12902468      -0.61604047        8 
O       1.94508918      -0.00738510       1.31121567        8 
O       0.50104752       1.79482475      -0.70661950        8 
O      -0.99153784       2.27133998       0.91648421        8 
C       1.09349359       3.09660302      -0.53643138        6 
C       3.70057301      -0.92617827      -0.47323373        6 
C      -0.29735488      -2.29699489       0.09186448        6 
C      -1.63464152      -2.64008645      -0.07001275        6 
C      -2.59798130      -1.64386198      -0.19896230        6 
C      -2.25777371      -0.28909437      -0.15534307        6 
H       0.33995097       3.87753490      -0.64336797        1 
H       3.93391122       0.13950087      -0.47425525        1 
H      -3.63805782      -1.91929610      -0.33668456        1 
H       1.55385981       3.16559147       0.45047450        1 
H       1.84506878       3.17628135      -1.31852862        1 
H       4.14981308      -1.41801602      -1.33292963        1 
H       4.05726487      -1.37060368       0.45719538        1 
H      -1.92676428      -3.68360528      -0.10371192        1 
H       0.46152546      -3.06463566       0.17905679        1 
C      -3.33482446       0.76016141      -0.28838943        6 
H      -3.07560932       1.51368632      -1.03643287        1 
H      -3.48328157       1.28750796       0.65659174        1 
H      -4.28012234       0.30134438      -0.58349992        1 
