27
Lattice="0.0 0.0 0.0 0.0 0.0 0.0 0.0 0.0 0.0" Properties=species:S:1:pos:R:3:Z:I:1 pbc="F F F"
C       0.72163405      -0.73365122       0.11173190        6 
C      -0.62822266      -0.33554782       0.04005187        6 
C       1.80520351       0.29025831      -0.00862077        6 
C      -1.03797945       1.08025215       0.35117860        6 
O       3.03075295      -0.27816288      -0.07642738        8 
O       1.63828539       1.48619345      -0.03457592        8 
O      -1.67905582       1.65240925      -0.68604459        8 
O      -0.83401300       1.62318930       1.40556830        8 
C      -2.10019871       3.01532822      -0.48467804        6 
C       4.13736457       0.63289128      -0.18664185        6 
C       1.04359940      -2.09448778       0.07052493        6 
C       0.04003874      -3.05138693      -0.01072749        6 
C      -1.28921939      -2.65299161      -0.08908593        6 
C      -1.64704523      -1.30122620      -0.05674237        6 
H      -2.80121225       3.07970671       0.34929046        1 
H       4.04489918       1.23758058      -1.09012018        1 
H      -2.07192222      -3.40091847      -0.16135233        1 
H      -1.23552342       3.64756441      -0.27955423        1 
H      -2.58178066       3.30934112      -1.41462122        1 
H       5.02416819       0.00465026      -0.23446009        1 
H       4.17784179       1.29112135       0.68255022        1 
H       0.29434897      -4.10498825      -0.02718771        1 
H       2.08269759      -2.39136456       0.08701541        1 
C      -3.11053087      -0.92166570      -0.09239317        6 
H      -3.35345333      -0.36030810      -0.99704894        1 
H      -3.38365360      -0.29587830       0.76218561        1 
H      -3.73651513      -1.81500376      -0.06325249        1 
