27
Lattice="0.0 0.0 0.0 0.0 0.0 0.0 0.0 0.0 0.0" Properties=species:S:1:pos:R:3:Z:I:1 pbc="F F F"
C       0.64311409      -0.78340973       0.03472592        6 
C      -0.65814988      -0.24982191      -0.09451161        6 
C       1.89779596      -0.01922617      -0.29709157        6 
C      -0.78739931       1.24461472      -0.05742837        6 
O       2.71414722       0.06710664       0.77311846        8 
O       2.16811263       0.39710388      -1.39198519        8 
O      -1.98750186       1.64423530       0.41994449        8 
O       0.07513980       2.02968695      -0.36901582        8 
C      -2.18466369       3.06617520       0.51083378        6 
C       3.97194535       0.73220552       0.54262136        6 
C       0.82701413      -2.14712519       0.26038849        6 
C      -0.26858307      -3.00102586       0.30736278        6 
C      -1.54380989      -2.49133814       0.10570550        6 
C      -1.77233858      -1.12266320      -0.07837221        6 
H      -1.45580800       3.50956457       1.19089173        1 
H       4.55658094       0.19144859      -0.20353883        1 
H      -2.39390237      -3.16471315       0.10282079        1 
H      -2.08519970       3.52965449      -0.47170355        1 
H      -3.19440023       3.19177106       0.89595660        1 
H       4.47988359       0.73029564       1.50434021        1 
H       3.80051605       1.75189815       0.19583319        1 
H      -0.12625011      -4.06264849       0.47545455        1 
H       1.83145370      -2.53736513       0.36955169        1 
C      -3.20727308      -0.68464594      -0.27535852        6 
H      -3.30492991       0.06525951      -1.06049146        1 
H      -3.61794955      -0.24661128       0.63672303        1 
H      -3.81851178      -1.54768554      -0.54726806        1 
