27
Lattice="0.0 0.0 0.0 0.0 0.0 0.0 0.0 0.0 0.0" Properties=species:S:1:pos:R:3:Z:I:1 pbc="F F F"
C      -0.08726241      -1.19061494       0.08988407        6 
C      -0.74987302       0.02805032      -0.09417563        6 
C       1.38127668      -1.31244508      -0.18848659        6 
C       0.04560385       1.27409648      -0.35920621        6 
O       2.11860488      -0.63368199       0.71276848        8 
O       1.84336116      -1.89190466      -1.13855475        8 
O       0.16169175       2.01939410       0.75443061        8 
O       0.49001740       1.59408464      -1.43449567        8 
C       0.89913844       3.24920815       0.61520839        6 
C       3.53821814      -0.60291045       0.46268394        6 
C      -0.81937342      -2.35206293       0.34308644        6 
C      -2.20294265      -2.28584190       0.45342574        6 
C      -2.85775155      -1.07008342       0.27088843        6 
C      -2.14955402       0.10231809      -0.00220259        6 
H       1.92227458       3.04318077       0.29743935        1 
H       3.94404237      -1.61530947       0.45124605        1 
H      -3.93958580      -1.02704462       0.33908480        1 
H       0.42010821       3.90075527      -0.11725069        1 
H       0.88870183       3.70477808       1.60257299        1 
H       3.96298023      -0.02736789       1.28179584        1 
H       3.73918767      -0.12276802      -0.49619549        1 
H      -2.77419914      -3.18325377       0.66209444        1 
H      -0.30275414      -3.29917729       0.44224535        1 
C      -2.87299681       1.41267146      -0.19867010        6 
H      -2.55919290       1.90331966      -1.12395926        1 
H      -2.66665951       2.10081150       0.62631815        1 
H      -3.95171029       1.25706189      -0.24877021        1 
