27
Lattice="0.0 0.0 0.0 0.0 0.0 0.0 0.0 0.0 0.0" Properties=species:S:1:pos:R:3:Z:I:1 pbc="F F F"
C       0.66592376      -0.78397386       0.08357084        6 
C      -0.65401743      -0.32679516      -0.05852761        6 
C       1.78553102       0.19902189       0.18658864        6 
C      -0.91386173       1.12710952      -0.33772508        6 
O       2.93120339      -0.29112123      -0.32677184        8 
O       1.69552031       1.28651924       0.70595067        8 
O      -1.67014918       1.68974027       0.61997630        8 
O      -0.51793315       1.70630326      -1.31863425        8 
C      -1.96024997       3.09067095       0.44887142        6 
C       4.08217595       0.56758345      -0.22658494        6 
C       0.92329167      -2.15116207       0.20893757        6 
C      -0.13118323      -3.05693065       0.20843080        6 
C      -1.43722888      -2.60025260       0.06485834        6 
C      -1.72357090      -1.23837639      -0.07645894        6 
H      -1.03308408       3.66477973       0.43610547        1 
H       3.90291062       1.50356232      -0.75734808        1 
H      -2.25599313      -3.31202977       0.05129940        1 
H      -2.50362390       3.25783413      -0.48258996        1 
H      -2.57108831       3.36523471       1.30579264        1 
H       4.89599735       0.01325318      -0.68854044        1 
H       4.30667497       0.78371760       0.81914749        1 
H       0.06359533      -4.11803525       0.31422797        1 
H       1.94444665      -2.49199319       0.31565713        1 
C      -3.15361230      -0.78818844      -0.26658490        6 
H      -3.25567812      -0.13810642      -1.14018958        1 
H      -3.50618828      -0.22405165       0.59998810        1 
H      -3.81133142      -1.64703544      -0.40978512        1 
