27
Lattice="0.0 0.0 0.0 0.0 0.0 0.0 0.0 0.0 0.0" Properties=species:S:1:pos:R:3:Z:I:1 pbc="F F F"
C       0.67388896      -0.85895106      -0.31320553        6 
C      -0.55379382      -0.26093525       0.06930442        6 
C       2.02761055      -0.20040942      -0.26997410        6 
C      -0.69966266       1.22574196      -0.13276600        6 
O       2.17651239       0.54947772       0.82935980        8 
O       2.94209725      -0.49774259      -1.00523466        8 
O      -1.97948227       1.55783711      -0.42495941        8 
O       0.18281141       2.04815584      -0.11929713        8 
C      -2.21939231       2.94788473      -0.70431427        6 
C       3.45315904       1.18784531       0.99123211        6 
C       0.74406217      -2.23592107      -0.52443434        6 
C      -0.36462433      -3.04133342      -0.29043258        6 
C      -1.53154981      -2.47146628       0.19612273        6 
C      -1.66348449      -1.08650849       0.36206370        6 
H      -1.92957116       3.56686649       0.14597554        1 
H       4.25332958       0.44655040       1.02269768        1 
H      -2.37868178      -3.10520611       0.43634596        1 
H      -1.65492295       3.26208775      -1.58352158        1 
H      -3.28903687       3.02289398      -0.88869817        1 
H       3.38685268       1.72684115       1.93340201        1 
H       3.63163390       1.88064908       0.16739349        1 
H      -0.30407765      -4.11210132      -0.44897486        1 
H       1.68787728      -2.66398589      -0.83663903        1 
C      -2.99778296      -0.58505405       0.87211609        6 
H      -3.64795984      -0.28139438       0.04862123        1 
H      -2.89390545       0.27424661       1.53347111        1 
H      -3.49735712      -1.38488538       1.42325535        1 
