27
Lattice="0.0 0.0 0.0 0.0 0.0 0.0 0.0 0.0 0.0" Properties=species:S:1:pos:R:3:Z:I:1 pbc="F F F"
C       0.50901889      -0.70811569       0.23861374        6 
C      -0.76813172      -0.22101438      -0.12211554        6 
C       1.76088995       0.10780901       0.04314376        6 
C      -1.07628180       1.24487304      -0.25691847        6 
O       2.75137081      -0.68894735      -0.43204873        8 
O       1.92992128       1.27954637       0.26948078        8 
O      -0.63831208       1.92627698       0.80886069        8 
O      -1.78692010       1.72452795      -1.11148825        8 
C      -0.85811798       3.34654024       0.79427111        6 
C       4.02514305      -0.05201718      -0.63241252        6 
C       0.66873842      -2.06004427       0.55855246        6 
C      -0.42385986      -2.91653084       0.56480044        6 
C      -1.67102671      -2.44265226       0.17992727        6 
C      -1.87012698      -1.10328161      -0.17131712        6 
H      -0.33289211       3.79802019      -0.04870310        1 
H       3.93599451       0.76116924      -1.35416345        1 
H      -2.51914890      -3.11825530       0.15896749        1 
H      -1.92347956       3.57096810       0.72160338        1 
H      -0.44802314       3.70897453       1.73376947        1 
H       4.67968680      -0.83282459      -1.01364046        1 
H       4.40656423       0.34563879       0.30957632        1 
H      -0.29798269      -3.95692618       0.84201808        1 
H       1.65617233      -2.43550612       0.78779243        1 
C      -3.26381136      -0.66027527      -0.55592025        6 
H      -3.30135251      -0.32415443      -1.59312599        1 
H      -3.60782126       0.17734631       0.05560889        1 
H      -3.96600426      -1.48612964      -0.42895539        1 
