27
Lattice="0.0 0.0 0.0 0.0 0.0 0.0 0.0 0.0 0.0" Properties=species:S:1:pos:R:3:Z:I:1 pbc="F F F"
C      -0.22280141      -1.17110542       0.01903920        6 
C      -0.77289595       0.11699043      -0.09048854        6 
C       1.24392429      -1.45498958       0.03479326        6 
C       0.08637941       1.34235262      -0.23221152        6 
O       1.96311430      -0.47922919      -0.55144805        8 
O       1.73754326      -2.45654361       0.49886949        8 
O       0.64284478       1.67829228       0.94781543        8 
O       0.22835856       1.96913441      -1.25113906        8 
C       1.52702207       2.81361441       0.92214345        6 
C       3.38952956      -0.65715286      -0.56076231        6 
C      -1.06863744      -2.27885663       0.14169601        6 
C      -2.44567381      -2.11016238       0.13552006        6 
C      -2.98528318      -0.83191105       0.01793664        6 
C      -2.16766117       0.29514017      -0.09597313        6 
H       2.35693277       2.62855270       0.23803918        1 
H       3.77263719      -0.69655589       0.46022097        1 
H      -4.06226481      -0.70136979       0.01795785        1 
H       0.99196130       3.70920193       0.60294059        1 
H       1.88665294       2.92403557       1.94262968        1 
H       3.78361145       0.20752418      -1.08989175        1 
H       3.65311725      -1.57934740      -1.08017032        1 
H      -3.09963118      -2.97024781       0.22261241        1 
H      -0.62518088      -3.26141598       0.23925816        1 
C      -2.77966930       1.66988717      -0.22415406        6 
H      -2.56711251       2.10160337      -1.20517549        1 
H      -2.38010997       2.35674378       0.52759716        1 
H      -3.86218221       1.62499769      -0.09498539        1 
