27
Lattice="0.0 0.0 0.0 0.0 0.0 0.0 0.0 0.0 0.0" Properties=species:S:1:pos:R:3:Z:I:1 pbc="F F F"
C       0.04860545      -1.22333697       0.05991882        6 
C      -0.71488551      -0.05318440      -0.06813664        6 
C       1.53682148      -1.21438180      -0.10752842        6 
C      -0.00791451       1.24143241      -0.33545816        6 
O       2.12448617      -0.35147196       0.74480307        8 
O       2.13326074      -1.88276179      -0.91410877        8 
O      -0.31152565       2.17673613       0.58346408        8 
O       0.73525211       1.43370085      -1.26758405        8 
C       0.31206205       3.46178109       0.39955900        6 
C       3.53941557      -0.15691774       0.56143993        6 
C      -0.57869999      -2.45504157       0.24883551        6 
C      -1.96359311      -2.51693346       0.34155003        6 
C      -2.71971120      -1.35560238       0.21182300        6 
C      -2.11915613      -0.11042284       0.00491951        6 
H       1.39775028       3.36384729       0.44058777        1 
H       4.07211045      -1.10351300       0.65950927        1 
H      -3.80188678      -1.41399172       0.26049170        1 
H       0.02590599       3.89051116      -0.56203038        1 
H      -0.04883765       4.07819490       1.21965153        1 
H       3.83997852       0.53611892       1.34400172        1 
H       3.72906217       0.26783001      -0.42553197        1 
H      -2.45639918      -3.46977071       0.49805059        1 
H       0.02329425      -3.35278880       0.31771199        1 
C      -2.98377815       1.11777075      -0.15836613        6 
H      -2.68294184       1.71096345      -1.02588219        1 
H      -2.91388293       1.76553741       0.71827636        1 
H      -4.02860475       0.83342706      -0.29437396        1 
