27
Lattice="0.0 0.0 0.0 0.0 0.0 0.0 0.0 0.0 0.0" Properties=species:S:1:pos:R:3:Z:I:1 pbc="F F F"
C      -0.19031772      -1.06199663      -0.18975484        6 
C      -0.78545298       0.19052945       0.07921856        6 
C       1.27616094      -1.34044253      -0.05400133        6 
C       0.01968468       1.45147785       0.02453636        6 
O       1.89695149      -0.44955852       0.74510281        8 
O       1.82227033      -2.32840737      -0.48773780        8 
O       0.90526037       1.40771748      -0.99496281        8 
O      -0.16783704       2.43920991       0.69452931        8 
C       1.76653755       2.54852050      -1.13074762        6 
C       3.29320080      -0.68789583       0.99007456        6 
C      -0.98854064      -2.18976158      -0.38003053        6 
C      -2.37226173      -2.08787684      -0.29411467        6 
C      -2.95437885      -0.86406997       0.00900967        6 
C      -2.18658257       0.29391936       0.19192084        6 
H       1.18253298       3.45998817      -1.26523213        1 
H       3.43841305      -1.66716153       1.44837663        1 
H      -4.03337837      -0.78982228       0.09191093        1 
H       2.39581645       2.65252963      -0.24452603        1 
H       2.37485582       2.34865327      -2.01019385        1 
H       3.60586098       0.10350090       1.66759649        1 
H       3.85704623      -0.64272378       0.05670943        1 
H      -2.99302406      -2.96399948      -0.44376796        1 
H      -0.50664543      -3.14095914      -0.56608491        1 
C      -2.89931956       1.59617024       0.47197247        6 
H      -2.62942038       2.37169762      -0.24854690        1 
H      -2.63831315       1.98460417       1.45752556        1 
H      -3.97957297       1.44747754       0.42685164        1 
