27
Lattice="0.0 0.0 0.0 0.0 0.0 0.0 0.0 0.0 0.0" Properties=species:S:1:pos:R:3:Z:I:1 pbc="F F F"
C      -0.12572312      -1.15714781       0.05816157        6 
C      -0.77605964       0.07528441      -0.07421791        6 
C       1.33507082      -1.31153953      -0.24824080        6 
C       0.00471952       1.33040486      -0.34520738        6 
O       2.11444870      -0.70976709       0.66926032        8 
O       1.75916638      -1.87828367      -1.22475528        8 
O       0.44065738       1.88825755       0.79729892        8 
O       0.17992658       1.80817820      -1.43948720        8 
C       1.20872404       3.09872494       0.65516228        6 
C       3.53284219      -0.76148137       0.41731790        6 
C      -0.86978726      -2.31526550       0.29531637        6 
C      -2.24834283      -2.23438970       0.44635032        6 
C      -2.89041808      -1.00534540       0.31617756        6 
C      -2.17327407       0.16240971       0.04815809        6 
H       2.11528848       2.90582768       0.07903884        1 
H       3.87544293      -1.79669789       0.38643042        1 
H      -3.96872591      -0.94799156       0.42045500        1 
H       0.62127103       3.86813674       0.15200215        1 
H       1.45682265       3.40306281       1.66923813        1 
H       3.99213064      -0.22916628       1.24697096        1 
H       3.76577097      -0.27765872      -0.53241496        1 
H      -2.82549745      -3.12948479       0.64858464        1 
H      -0.36474366      -3.27199385       0.35306909        1 
C      -2.88548323       1.48253268      -0.12035895        6 
H      -2.78436705       1.85337723      -1.14422749        1 
H      -2.47423467       2.24547894       0.54692046        1 
H      -3.94898165       1.38044160       0.10045030        1 
