27
Lattice="0.0 0.0 0.0 0.0 0.0 0.0 0.0 0.0 0.0" Properties=species:S:1:pos:R:3:Z:I:1 pbc="F F F"
C       0.07748905      -0.93069129      -0.08694818        6 
C      -0.91061454       0.06768902      -0.01822701        6 
C       1.51552759      -0.59698467      -0.34912206        6 
C      -0.52582882       1.51151728      -0.07055183        6 
O       2.32109551      -1.14050259       0.58248944        8 
O       1.91364148       0.00363164      -1.31760753        8 
O       0.59071934       1.74443827       0.65030978        8 
O      -1.13639403       2.37621669      -0.65164937        8 
C       1.14686453       3.06711122       0.54516704        6 
C       3.73430722      -0.96137448       0.37170132        6 
C      -0.27422075      -2.27766054      -0.00684127        6 
C      -1.61233752      -2.63501323       0.11651394        6 
C      -2.59088474      -1.64924866       0.17306385        6 
C      -2.26878369      -0.28935983       0.10746316        6 
H       1.45352603       3.26042149      -0.48411685        1 
H       4.03805961      -1.41115801      -0.57489966        1 
H      -3.63204836      -1.93479077       0.27708035        1 
H       0.41632676       3.81528502       0.85489918        1 
H       2.00844398       3.07148421       1.20892746        1 
H       4.21646027      -1.46124017       1.20867618        1 
H       3.98526601       0.10022496       0.36081101        1 
H      -1.89240566      -3.68101300       0.17098502        1 
H       0.49670311      -3.03674262      -0.05166329        1 
C      -3.37896500       0.73078114       0.19097803        6 
H      -3.50966668       1.24645428      -0.76234563        1 
H      -3.16858211       1.50082422       0.93627430        1 
H      -4.31834098       0.24307572       0.45773481        1 
