27
Lattice="0.0 0.0 0.0 0.0 0.0 0.0 0.0 0.0 0.0" Properties=species:S:1:pos:R:3:Z:I:1 pbc="F F F"
C      -0.14226272      -1.03530600       0.25684820        6 
C      -0.76670678       0.18787755      -0.09408447        6 
C       1.31732927      -1.33068403       0.04347211        6 
C      -0.03087143       1.48868719       0.01637290        6 
O       1.95443809      -0.37330931      -0.65721910        8 
O       1.83028338      -2.39616043       0.30198118        8 
O       0.89742933       1.43232807       0.99614681        8 
O      -0.32977885       2.52157098      -0.53775906        8 
C       1.66486091       2.62619693       1.20658126        6 
C       3.31234727      -0.66281357      -1.02938926        6 
C      -0.91809699      -2.16682170       0.50479385        6 
C      -2.30329741      -2.10753705       0.40016239        6 
C      -2.90894106      -0.92846559      -0.00810191        6 
C      -2.16887250       0.23791486      -0.25143000        6 
H       2.23299776       2.87490156       0.30799453        1 
H       3.93056654      -0.80586920      -0.14176473        1 
H      -3.98652122      -0.89248784      -0.12558184        1 
H       1.01447420       3.46384166       1.46284633        1 
H       2.33643891       2.39597315       2.03092407        1 
H       3.64606725       0.20442171      -1.59489907        1 
H       3.35567830      -1.56314850      -1.64424972        1 
H      -2.90322868      -2.98763230       0.60241248        1 
H      -0.41381531      -3.09670644       0.73337960        1 
C      -2.92419312       1.48857113      -0.63597119        6 
H      -2.60306472       1.86549761      -1.60779688        1 
H      -2.75836645       2.29930485       0.07677572        1 
H      -3.99434503       1.27710081      -0.67593352        1 
