27
Lattice="0.0 0.0 0.0 0.0 0.0 0.0 0.0 0.0 0.0" Properties=species:S:1:pos:R:3:Z:I:1 pbc="F F F"
C      -0.22955617      -1.05038252      -0.09660068        6 
C      -0.86208123       0.20032729       0.00570902        6 
C       1.25843025      -1.19559189      -0.22707357        6 
C      -0.04275459       1.44725651       0.10612666        6 
O       1.88667012      -0.82762131       0.90791109        8 
O       1.82222935      -1.59850954      -1.21262300        8 
O       0.96129806       1.44323912      -0.79447191        8 
O      -0.23075919       2.34424573       0.89240325        8 
C       1.89819858       2.53119292      -0.71274290        6 
C       3.32465581      -0.88860670       0.87649187        6 
C      -0.98725524      -2.22008608      -0.15091211        6 
C      -2.37322037      -2.14956656      -0.07888044        6 
C      -2.99985993      -0.91205319       0.02823195        6 
C      -2.26788929       0.27759587       0.07904366        6 
H       1.39682571       3.48238346      -0.89635427        1 
H       3.65908204      -1.90852533       0.68167185        1 
H      -4.08251794      -0.86156969       0.06997642        1 
H       2.36466725       2.55419603       0.27365744        1 
H       2.63710752       2.33177210      -1.48558025        1 
H       3.64985086      -0.55952663       1.86078593        1 
H       3.71397179      -0.22892267       0.09914074        1 
H      -2.96578145      -3.05671194      -0.11495908        1 
H      -0.48790627      -3.17617753      -0.25166410        1 
C      -3.00220461       1.59176543       0.19436771        6 
H      -2.65144684       2.32011483      -0.54045008        1 
H      -2.85141885       2.03892964       1.17900943        1 
H      -4.07196245       1.44001185       0.03955498        1 
