27
Lattice="0.0 0.0 0.0 0.0 0.0 0.0 0.0 0.0 0.0" Properties=species:S:1:pos:R:3:Z:I:1 pbc="F F F"
C      -0.13782855      -1.03380738      -0.25061968        6 
C      -0.76620601       0.18613799       0.10695941        6 
C       1.32166859      -1.32874491      -0.03454535        6 
C      -0.03842201       1.49123794      -0.01149471        6 
O       1.95222819      -0.38255476       0.68626848        8 
O       1.83874777      -2.38834756      -0.30892550        8 
O       0.91302600       1.42535902      -0.96843316        8 
O      -0.36280504       2.53400469       0.50927305        8 
C       1.66223556       2.62728519      -1.19744693        6 
C       3.31260689      -0.67084109       1.05018568        6 
C      -0.90939938      -2.16517884      -0.51047686        6 
C      -2.29521033      -2.11089566      -0.41000219        6 
C      -2.90511459      -0.93732409       0.00676512        6 
C      -2.16951301       0.23003523       0.26000776        6 
H       1.00242190       3.44202752      -1.49960239        1 
H       3.36321193      -1.58286132       1.64694376        1 
H      -3.98310734      -0.90537582       0.12130466        1 
H       2.20034902       2.91829892      -0.29323984        1 
H       2.36045773       2.38389561      -1.99550317        1 
H       3.64221767       0.18732068       1.63167824        1 
H       3.92956634      -0.79234076       0.15843459        1 
H      -2.89195301      -2.99100204      -0.62144226        1 
H      -0.40152966      -3.09138008      -0.74591958        1 
C      -2.93289753       1.47499393       0.64691317        6 
H      -2.78305006       2.28290240      -0.07266450        1 
H      -2.60512793       1.86164126       1.61249157        1 
H      -4.00028748       1.25253144       0.69964138        1 
