27
Lattice="0.0 0.0 0.0 0.0 0.0 0.0 0.0 0.0 0.0" Properties=species:S:1:pos:R:3:Z:I:1 pbc="F F F"
C      -0.09754705      -1.06796000       0.10813780        6 
C      -0.82685160       0.12498848       0.04597133        6 
C       1.38510686      -1.08927276       0.35162477        6 
C      -0.16136009       1.43760796       0.34585485        6 
O       2.07105772      -0.92736372      -0.79279341        8 
O       1.89883611      -1.28097378       1.42636570        8 
O       0.63234908       1.84160494      -0.66237250        8 
O      -0.30251967       2.04812833       1.37688375        8 
C       1.36982523       3.05981383      -0.43476108        6 
C       3.50734986      -0.96107971      -0.67930935        6 
C      -0.74783602      -2.29467655      -0.03833105        6 
C      -2.11845330      -2.32732253      -0.26474758        6 
C      -2.84098974      -1.13895372      -0.33130316        6 
C      -2.21801025       0.09862575      -0.16039544        6 
H       0.68636678       3.89516789      -0.27672246        1 
H       3.85380563      -0.17879418      -0.00237371        1 
H      -3.91067191      -1.17045594      -0.50824509        1 
H       2.01435177       2.95287475       0.43889835        1 
H       1.96064496       3.21013788      -1.33530859        1 
H       3.87890674      -0.79115171      -1.68713571        1 
H       3.83691740      -1.93176386      -0.30556754        1 
H      -2.62524454      -3.27779175      -0.38750601        1 
H      -0.17899701      -3.21481417       0.02484408        1 
C      -3.02605059       1.37308744      -0.19036458        6 
H      -2.60999822       2.09456682      -0.89968039        1 
H      -3.03498392       1.85152209       0.79239910        1 
H      -4.05751043       1.17069016      -0.48327153        1 
