27
Lattice="0.0 0.0 0.0 0.0 0.0 0.0 0.0 0.0 0.0" Properties=species:S:1:pos:R:3:Z:I:1 pbc="F F F"
C      -0.12088766      -1.13258166       0.24202568        6 
C      -0.74848131       0.09055870      -0.06298481        6 
C       1.33686789      -1.40338468       0.01598145        6 
C       0.00874712       1.38130633      -0.20463056        6 
O       2.11327418      -0.30637768       0.07395231        8 
O       1.76657707      -2.49498691      -0.28016569        8 
O       0.52561754       1.75829906       0.97788379        8 
O       0.02566129       2.07027700      -1.19628693        8 
C       1.28566285       2.97847201       0.97170086        6 
C       3.49547968      -0.49617364      -0.28008745        6 
C      -0.90258815      -2.26239082       0.50846437        6 
C      -2.28669904      -2.17515106       0.51215330        6 
C      -2.90093616      -0.96939918       0.18775054        6 
C      -2.15394997       0.17414612      -0.10687524        6 
H       2.14820654       2.87896209       0.31019744        1 
H       3.96731058      -1.20926124       0.39683708        1 
H      -3.98374103      -0.90619956       0.16671828        1 
H       0.67105087       3.81548233       0.63744678        1 
H       1.60789881       3.12333599       2.00032794        1 
H       3.95449658       0.48520923      -0.18498198        1 
H       3.57770866      -0.86225629      -1.30447285        1 
H      -2.88736641      -3.04833686       0.73968087        1 
H      -0.40466085      -3.20724277       0.68351241        1 
C      -2.86465496       1.46465643      -0.44223339        6 
H      -2.61051524       1.80584980      -1.44753768        1 
H      -2.58803742       2.26659312       0.24867646        1 
H      -3.94572255       1.32993570      -0.38315145        1 
