27
Lattice="0.0 0.0 0.0 0.0 0.0 0.0 0.0 0.0 0.0" Properties=species:S:1:pos:R:3:Z:I:1 pbc="F F F"
C       0.58489050      -0.78782356      -0.12108204        6 
C      -0.71591516      -0.31238182       0.11093828        6 
C       1.74272087       0.14583751       0.00020811        6 
C      -1.00051126       1.14979011       0.32989671        6 
O       2.90307362      -0.51430459       0.20073752        8 
O       1.67792753       1.35044186      -0.08895656        8 
O      -1.08943069       1.79588092      -0.84227041        8 
O      -1.23443726       1.64432260       1.40512454        8 
C      -1.29116087       3.21914410      -0.76264560        6 
C       4.08135725       0.30469752       0.30575255        6 
C       0.79271243      -2.15208982      -0.35739638        6 
C      -0.28761926      -3.02330443      -0.39564002        6 
C      -1.57402188      -2.54498575      -0.16071030        6 
C      -1.81104498      -1.19266748       0.09806143        6 
H      -2.21092961       3.44843758      -0.22228268        1 
H       4.23616605       0.86999787      -0.61465241        1 
H      -2.41437774      -3.23091478      -0.18064248        1 
H      -0.44274086       3.68170854      -0.25638853        1 
H      -1.35404267       3.55950391      -1.79369905        1 
H       4.90092226      -0.39061077       0.47273176        1 
H       3.98827799       0.99876021       1.14212059        1 
H      -0.12911365      -4.07679118      -0.59578216        1 
H       1.79953475      -2.51555674      -0.50914758        1 
C      -3.21570311      -0.69936275       0.35220982        6 
H      -3.48300924       0.10925254      -0.33416372        1 
H      -3.31814311      -0.31007942       1.36835844        1 
H      -3.93879147      -1.50588572       0.22021200        1 
