27
Lattice="0.0 0.0 0.0 0.0 0.0 0.0 0.0 0.0 0.0" Properties=species:S:1:pos:R:3:Z:I:1 pbc="F F F"
C      -0.20096230      -1.12756298      -0.11914022        6 
C      -0.77596072       0.13997395       0.09410569        6 
C       1.26492669      -1.41366470      -0.03053811        6 
C       0.05723603       1.38703555       0.15941026        6 
O       1.95862657      -0.40538867       0.53190268        8 
O       1.77099041      -2.46657899      -0.34443716        8 
O       0.71018115       1.58065542      -1.00402064        8 
O       0.07503022       2.16613362       1.07996786        8 
C       1.58153518       2.72296489      -1.05277334        6 
C       3.36849250      -0.62458686       0.70893759        6 
C      -1.02503569      -2.24379633      -0.29140647        6 
C      -2.40564005      -2.10684842      -0.25019296        6 
C      -2.96819884      -0.85540288      -0.02051586        6 
C      -2.17437202       0.28328519       0.15082110        6 
H       1.02789346       3.63985161      -0.84616668        1 
H       3.54075031      -1.50665260       1.32719667        1 
H      -4.04729335      -0.75069777       0.01893691        1 
H       2.38307155       2.61476921      -0.31937291        1 
H       1.98613549       2.73625515      -2.06235702        1 
H       3.73824790       0.26990073       1.20506129        1 
H       3.85594616      -0.76248963      -0.25755156        1 
H      -3.04285265      -2.97346092      -0.38454201        1 
H      -0.56127311      -3.21049712      -0.43914358        1 
C      -2.83145198       1.62610341       0.36867894        6 
H      -2.51608457       2.35386831      -0.38473201        1 
H      -2.56703283       2.03991069       1.34342498        1 
H      -3.91696425       1.53294006       0.31056322        1 
