27
Lattice="0.0 0.0 0.0 0.0 0.0 0.0 0.0 0.0 0.0" Properties=species:S:1:pos:R:3:Z:I:1 pbc="F F F"
C       0.51629906      -0.97868785      -0.22315114        6 
C      -0.61971923      -0.21222470       0.09847116        6 
C       1.91254360      -0.43104227      -0.33528026        6 
C      -0.51737844       1.28739241       0.09159571        6 
O       2.35697223       0.02254572       0.84179288        8 
O       2.59131534      -0.51783110      -1.33223892        8 
O      -1.51076896       1.82503043      -0.65173739        8 
O       0.33598493       1.95432421       0.62219296        8 
C      -1.51641081       3.26062956      -0.75387741        6 
C       3.68276360       0.58221064       0.84773741        6 
C       0.40129366      -2.35687813      -0.41073726        6 
C      -0.82181887      -2.98648906      -0.21681971        6 
C      -1.93106616      -2.23807201       0.15988059        6 
C      -1.86299349      -0.84888039       0.29873211        6 
H      -1.60224719       3.71456351       0.23461476        1 
H       4.41343956      -0.15892558       0.51998960        1 
H      -2.87795624      -2.73615284       0.33934325        1 
H      -0.60017885       3.61066632      -1.23159112        1 
H      -2.38308749       3.50211777      -1.36523933        1 
H       3.86436902       0.87693744       1.87837597        1 
H       3.72310064       1.45054179       0.18887336        1 
H      -0.90756555      -4.05951250      -0.34556159        1 
H       1.27830816      -2.92680943      -0.69157512        1 
C      -3.12038544      -0.10029521       0.67972981        6 
H      -3.59901561       0.33771718      -0.19923475        1 
H      -2.91908345       0.71341400       1.37865362        1 
H      -3.83151184      -0.78113295       1.15201264        1 
