27
Lattice="0.0 0.0 0.0 0.0 0.0 0.0 0.0 0.0 0.0" Properties=species:S:1:pos:R:3:Z:I:1 pbc="F F F"
C       0.16289902      -0.92221511       0.14089647        6 
C      -0.90641690      -0.01000594       0.03233580        6 
C       1.60448418      -0.54665119       0.36137467        6 
C      -0.67362676       1.45128294      -0.21600911        6 
O       2.34931536      -0.89811092      -0.71046387        8 
O       2.05895957      -0.05589673       1.36091352        8 
O       0.33665491       1.95141965       0.50888994        8 
O      -1.31186781       2.10987214      -1.00622305        8 
C       0.67473528       3.32891767       0.27056707        6 
C       3.76714598      -0.67079235      -0.59308403        6 
C      -0.09017325      -2.29645955       0.15784503        6 
C      -1.39467300      -2.77052355       0.12094237        6 
C      -2.45129295      -1.87089440       0.05366476        6 
C      -2.23438553      -0.49238050      -0.01946953        6 
H       0.94503291       3.47947647      -0.77582756        1 
H       3.97114808       0.38887969      -0.43311476        1 
H      -3.47080463      -2.24074345       0.03902920        1 
H      -0.16743190       3.97625020       0.51969366        1 
H       1.52120941       3.53035205       0.92282699        1 
H       4.19194211      -1.00581422      -1.53658904        1 
H       4.17734278      -1.24411276       0.23988656        1 
H      -1.58703041      -3.83704143       0.15114758        1 
H       0.74058535      -2.98922875       0.21667070        1 
C      -3.43626577       0.41484981      -0.14536301        6 
H      -3.53756224       0.78899584      -1.16605468        1 
H      -3.36366520       1.28966806       0.50312729        1 
H      -4.34372856      -0.13239313       0.11704634        1 
