27
Lattice="0.0 0.0 0.0 0.0 0.0 0.0 0.0 0.0 0.0" Properties=species:S:1:pos:R:3:Z:I:1 pbc="F F F"
C       0.69500296      -0.74552857      -0.01112035        6 
C      -0.64726316      -0.30290135      -0.02582232        6 
C       1.83900050       0.17786495      -0.32144341        6 
C      -0.86976192       1.16457388       0.18787754        6 
O       2.86386788      -0.00523616       0.53394821        8 
O       1.87056940       0.92807652      -1.26393863        8 
O      -2.10520414       1.57726319      -0.16128776        8 
O      -0.02403109       1.92237196       0.60095961        8 
C      -2.36436184       2.98400615      -0.00054312        6 
C       4.03542911       0.79232039       0.28003507        6 
C       0.99412140      -2.10413170       0.04312730        6 
C      -0.03333508      -3.04188906       0.06798269        6 
C      -1.35206348      -2.61520545       0.03198437        6 
C      -1.69284638      -1.25487547       0.00306963        6 
H      -2.23507262       3.28078548       1.04134382        1 
H       4.44486516       0.56462363      -0.70556936        1 
H      -2.15032666      -3.34906145       0.04933891        1 
H      -1.68676240       3.56670683      -0.62594233        1 
H      -3.39604827       3.12398103      -0.31592199        1 
H       4.74217125       0.52467087       1.06231443        1 
H       3.78624092       1.85298897       0.33045546        1 
H       0.19544373      -4.10095339       0.10715560        1 
H       2.02907005      -2.42137919       0.04424603        1 
C      -3.16742701      -0.91687878       0.03268858        6 
H      -3.47177318      -0.37057276      -0.86092228        1 
H      -3.42503054      -0.28870581       0.88746526        1 
H      -3.75377691      -1.83530678       0.09453345        1 
