27
Lattice="0.0 0.0 0.0 0.0 0.0 0.0 0.0 0.0 0.0" Properties=species:S:1:pos:R:3:Z:I:1 pbc="F F F"
C       0.68237953      -0.77088124      -0.04582579        6 
C      -0.65030102      -0.30762683      -0.01255507        6 
C       1.83400597       0.15070664      -0.33040308        6 
C      -0.84375064       1.16420803       0.19035902        6 
O       2.83138851      -0.02099546       0.55714533        8 
O       1.89360127       0.88568649      -1.28403080        8 
O      -2.05177184       1.60637154      -0.21150774        8 
O       0.00380573       1.89826586       0.64186399        8 
C      -2.28370679       3.01948800      -0.06227763        6 
C       4.00781421       0.77885571       0.33309729        6 
C       0.96153861      -2.13458783      -0.02481530        6 
C      -0.08090289      -3.05488891       0.01499607        6 
C      -1.39347460      -2.60611093       0.03361426        6 
C      -1.71135018      -1.24063640       0.03463552        6 
H      -2.18803310       3.31490101       0.98359361        1 
H       4.44361048       0.55082056      -0.64099999        1 
H      -2.20274346      -3.32722098       0.06844949        1 
H      -1.56847462       3.58446334      -0.66142806        1 
H      -3.29853432       3.18329878      -0.41804547        1 
H       4.69394443       0.51392856       1.13435995        1 
H       3.75452564       1.83888413       0.37580216        1 
H       0.13051172      -4.11817774       0.02812602        1 
H       1.99076966      -2.46898346      -0.05628649        1 
C      -3.17588866      -0.87015146       0.11604323        6 
H      -3.50390330      -0.34185370      -0.78041774        1 
H      -3.38450657      -0.21267650       0.96216047        1 
H      -3.77899914      -1.77283279       0.22707116        1 
