27
Lattice="0.0 0.0 0.0 0.0 0.0 0.0 0.0 0.0 0.0" Properties=species:S:1:pos:R:3:Z:I:1 pbc="F F F"
C      -0.19370681      -1.04367163      -0.18665907        6 
C      -0.79974298       0.20714469       0.06647172        6 
C       1.28081168      -1.29054744      -0.08874053        6 
C      -0.00228811       1.46983189      -0.01617992        6 
O       1.84290310      -0.56876021       0.90281571        8 
O       1.87619714      -2.13074812      -0.72050301        8 
O       1.02256986       1.34105842      -0.88841808        8 
O      -0.28619287       2.52192368       0.50767747        8 
C       1.86862020       2.49049954      -1.04672221        6 
C       3.25448968      -0.75955104       1.09420922        6 
C      -0.97389588      -2.18442061      -0.36122066        6 
C      -2.35860751      -2.10066298      -0.26057649        6 
C      -2.95463756      -0.88091768       0.02919813        6 
C      -2.20360390       0.29225853       0.18630829        6 
H       1.28952906       3.34901925      -1.38937793        1 
H       3.47369898      -1.80620258       1.30934819        1 
H      -4.03378426      -0.82105721       0.11991967        1 
H       2.35298081       2.73935077      -0.10052914        1 
H       2.60733932       2.20385592      -1.79208079        1 
H       3.51903787      -0.12935747       1.94036950        1 
H       3.80222999      -0.45487741       0.20048051        1 
H      -2.96885275      -2.98696220      -0.39300908        1 
H      -0.48254330      -3.13038684      -0.55052625        1 
C      -2.94250605       1.58302355       0.44880963        6 
H      -2.70607910       2.34632497      -0.29556831        1 
H      -2.67031522       2.00442862       1.41751652        1 
H      -4.01915489       1.40447192       0.43124550        1 
