27
Lattice="0.0 0.0 0.0 0.0 0.0 0.0 0.0 0.0 0.0" Properties=species:S:1:pos:R:3:Z:I:1 pbc="F F F"
C       0.52323148      -1.01167076       0.20959821        6 
C      -0.62680128      -0.21358481      -0.00168249        6 
C       1.93039504      -0.48398315       0.18576359        6 
C      -0.47647641       1.24996603       0.28924689        6 
O       2.13757899       0.29805309      -0.88948065        8 
O       2.80958604      -0.86579856       0.92025631        8 
O      -1.56885406       1.98084324      -0.01317770        8 
O       0.52539733       1.75191609       0.74531929        8 
C      -1.47965077       3.38841676       0.27262811        6 
C       3.45087718       0.87015142      -1.00158889        6 
C       0.43069773      -2.39893624       0.25749926        6 
C      -0.79839235      -3.01957499       0.06261445        6 
C      -1.92156362      -2.24797278      -0.19427691        6 
C      -1.87657317      -0.84602391      -0.21292477        6 
H      -1.28954105       3.55080704       1.33443354        1 
H       3.64340235       1.52637509      -0.15115292        1 
H      -2.87463222      -2.73694440      -0.36345028        1 
H      -0.67692702       3.84470549      -0.30820955        1 
H      -2.44467280       3.80080416      -0.01403675        1 
H       3.44005080       1.43906789      -1.92869965        1 
H       4.21046060       0.08768561      -1.03789240        1 
H      -0.87662620      -4.10043360       0.09548407        1 
H       1.32964324      -2.97890027       0.42406816        1 
C      -3.18823247      -0.12861923      -0.44487641        6 
H      -3.12832131       0.56305458      -1.28545022        1 
H      -3.48776441       0.45912832       0.42497551        1 
H      -3.97250723      -0.85932818      -0.64988727        1 
