27
Lattice="0.0 0.0 0.0 0.0 0.0 0.0 0.0 0.0 0.0" Properties=species:S:1:pos:R:3:Z:I:1 pbc="F F F"
C      -0.08511132      -0.98007325      -0.22293498        6 
C      -0.83762241       0.18222896       0.05819411        6 
C       1.41694733      -1.05214011      -0.24270014        6 
C      -0.22542031       1.54255762      -0.06495860        6 
O       1.91767588      -0.85770682       0.99146121        8 
O       2.07582590      -1.40178114      -1.19118457        8 
O       1.11876742       1.50344808      -0.16525279        8 
O      -0.84621233       2.57709569      -0.16448612        8 
C       1.77545043       2.75501192      -0.42557366        6 
C       3.34760442      -0.94502381       1.10637349        6 
C      -0.71660072      -2.21192609      -0.38290396        6 
C      -2.09222539      -2.31618238      -0.21379299        6 
C      -2.82945570      -1.19052524       0.12731943        6 
C      -2.23693249       0.07151128       0.25072519        6 
H       1.39298298       3.20182839      -1.34415224        1 
H       3.69845009      -1.93329673       0.80477049        1 
H      -3.89852994      -1.27985911       0.28629123        1 
H       1.61884783       3.44588520       0.40398819        1 
H       2.82998214       2.50951652      -0.52892176        1 
H       3.56560979      -0.76418254       2.15655703        1 
H       3.82388352      -0.18911363       0.47933468        1 
H      -2.58400433      -3.27529551      -0.33152516        1 
H      -0.12141784      -3.08570382      -0.61852181        1 
C      -3.13841264       1.23619815       0.58597184        6 
H      -3.28695294       1.88600344      -0.27913908        1 
H      -2.72042578       1.86455787       1.37265825        1 
H      -4.11110138       0.86288051       0.91261796        1 
