27
Lattice="0.0 0.0 0.0 0.0 0.0 0.0 0.0 0.0 0.0" Properties=species:S:1:pos:R:3:Z:I:1 pbc="F F F"
C       0.75538810       0.58161605      -0.14349145        6 
C      -0.61371229       0.26023592       0.09780516        6 
C       1.88157314      -0.32459698       0.28719786        6 
C      -1.02261276      -1.17812659      -0.11941475        6 
O       3.03485300      -0.01466414      -0.35784653        8 
O       1.80419904      -1.21176186       1.09501242        8 
O      -2.36732402      -1.34578373      -0.12796019        8 
O      -0.27208098      -2.10483794      -0.29105837        8 
C      -2.82646561      -2.68813157      -0.35982327        6 
C       4.17335992      -0.81677959      -0.00042872        6 
C       1.12194211       1.90011477      -0.41137106        6 
C       0.17125117       2.91639674      -0.40849603        6 
C      -1.13623370       2.62146575      -0.06575002        6 
C      -1.56421461       1.30455926       0.17094793        6 
H      -2.49054814      -3.04628000      -1.33438462        1 
H       4.40591132      -0.70319715       1.05985636        1 
H      -1.86644136       3.42094523      -0.00111816        1 
H      -2.45231608      -3.36025371       0.41385694        1 
H      -3.91267164      -2.62954445      -0.32666949        1 
H       4.99226389      -0.44886487      -0.61486832        1 
H       3.97619041      -1.86922843      -0.21061803        1 
H       0.46315944       3.93724690      -0.62676440        1 
H       2.16565664       2.12660299      -0.57754833        1 
C      -3.03424174       1.13055435       0.49180516        6 
H      -3.19531516       0.42665145       1.30687735        1 
H      -3.59023447       0.75219801      -0.36818232        1 
H      -3.45712007       2.09656362       0.77522411        1 
