27
Lattice="0.0 0.0 0.0 0.0 0.0 0.0 0.0 0.0 0.0" Properties=species:S:1:pos:R:3:Z:I:1 pbc="F F F"
C       0.65408206      -0.76756847       0.00873562        6 
C      -0.64935368      -0.23829110       0.11364566        6 
C       1.91173417       0.00387637       0.30388978        6 
C      -0.82714096       1.25358736       0.14799452        6 
O       2.75314832      -0.03311245      -0.75565428        8 
O       2.17201905       0.53681160       1.34854717        8 
O      -1.88061190       1.63029716      -0.61701876        8 
O      -0.12129326       2.04831368       0.71453981        8 
C      -2.14020338       3.04375915      -0.67344528        6 
C       4.02597941       0.61259809      -0.56098019        6 
C       0.83719484      -2.13193097      -0.22803593        6 
C      -0.25649295      -2.98547999      -0.29632997        6 
C      -1.53625342      -2.47591781      -0.12000256        6 
C      -1.76234120      -1.10860144       0.06630497        6 
H      -2.34103258       3.43711492       0.32446533        1 
H       3.88270589       1.66720400      -0.32230096        1 
H      -2.38756030      -3.14780078      -0.13565908        1 
H      -1.28577438       3.57186526      -1.09939845        1 
H      -3.01436647       3.15100012      -1.31213304        1 
H       4.55526085       0.49851547      -1.50444948        1 
H       4.57640632       0.13289378       0.25014824        1 
H      -0.11027970      -4.04628302      -0.46575921        1 
H       1.84231389      -2.52048928      -0.33361772        1 
C      -3.19454548      -0.65098282       0.23786134        6 
H      -3.59336269      -0.24173477      -0.69267376        1 
H      -3.29142549       0.12478130       0.99858679        1 
H      -3.81788542      -1.49662126       0.53598491        1 
