27
Lattice="0.0 0.0 0.0 0.0 0.0 0.0 0.0 0.0 0.0" Properties=species:S:1:pos:R:3:Z:I:1 pbc="F F F"
C      -0.13061025      -1.11019340      -0.22898208        6 
C      -0.75288345       0.11499510       0.08907019        6 
C       1.33069495      -1.38965520      -0.03219502        6 
C       0.00490578       1.40991235       0.16475080        6 
O       2.07878963      -0.28579845       0.14666076        8 
O       1.78464200      -2.50715813       0.06896384        8 
O       0.58745368       1.68004824      -1.01844199        8 
O      -0.02701431       2.18571496       1.08952375        8 
C       1.36304000       2.88815315      -1.07782073        6 
C       3.45853693      -0.50856534       0.48879080        6 
C      -0.91692504      -2.23826950      -0.48472976        6 
C      -2.30137394      -2.15366543      -0.45308883        6 
C      -2.90879973      -0.95044022      -0.11091825        6 
C      -2.15739042       0.19671643       0.16295718        6 
H       0.75036247       3.75487061      -0.82613058        1 
H       3.53238622      -1.09747023       1.40390203        1 
H      -3.99085713      -0.88925958      -0.06311529        1 
H       2.20318866       2.82727103      -0.38331934        1 
H       1.72003244       2.95269115      -2.10323985        1 
H       3.88225399       0.48248153       0.63424293        1 
H       3.97060735      -1.03284358      -0.31919093        1 
H      -2.90590199      -3.02748069      -0.66779298        1 
H      -0.42019788      -3.18031221      -0.67684008        1 
C      -2.87153696       1.48511311       0.50014852        6 
H      -2.60594321       2.28714504      -0.19445059        1 
H      -2.60935561       1.83253487       1.50086579        1 
H      -3.95216280       1.34254750       0.45106730        1 
