27
Lattice="0.0 0.0 0.0 0.0 0.0 0.0 0.0 0.0 0.0" Properties=species:S:1:pos:R:3:Z:I:1 pbc="F F F"
C      -0.17888218      -1.04806662       0.21217433        6 
C      -0.79410416       0.19222049      -0.07270391        6 
C       1.29280507      -1.30182033       0.08118660        6 
C      -0.01435565       1.46694244       0.00568207        6 
O       1.87246464      -0.47436692      -0.81256347        8 
O       1.87080750      -2.23364242       0.59012805        8 
O       0.94785080       1.38591930       0.95154194        8 
O      -0.27606429       2.49355103      -0.57655251        8 
C       1.78269733       2.54387825       1.10395534        6 
C       3.27152765      -0.69342402      -1.05774193        6 
C      -0.95485099      -2.18974615       0.40387318        6 
C      -2.33960927      -2.11702545       0.29736942        6 
C      -2.94167479      -0.90906925      -0.02681574        6 
C      -2.19649606       0.26468726      -0.20731393        6 
H       2.33717433       2.73421048       0.18279073        1 
H       3.84785590      -0.52928470      -0.14543861        1 
H      -4.02041425      -0.85887520      -0.12801777        1 
H       1.18374356       3.42165795       1.35017328        1 
H       2.46398025       2.30354322       1.91730324        1 
H       3.54709438       0.02999996      -1.82187626        1 
H       3.44283023      -1.71142587      -1.41041130        1 
H      -2.94458189      -3.00425108       0.44663253        1 
H      -0.45643061      -3.12942753       0.60475230        1 
C      -2.93913191       1.54479085      -0.50952639        6 
H      -2.66200500       1.94072566      -1.48762568        1 
H      -2.71148724       2.32912783       0.21549848        1 
H      -4.01522293       1.36273191      -0.49477123        1 
