27
Lattice="0.0 0.0 0.0 0.0 0.0 0.0 0.0 0.0 0.0" Properties=species:S:1:pos:R:3:Z:I:1 pbc="F F F"
C      -0.21568880      -1.18927130       0.02983437        6 
C      -0.77446174       0.09634868       0.10249580        6 
C       1.25382164      -1.44649046      -0.05470799        6 
C       0.07723300       1.32357009       0.27840862        6 
O       1.97588452      -0.52011391       0.60247565        8 
O       1.74568328      -2.37334617      -0.65519394        8 
O       0.58769415       1.72996665      -0.90050511        8 
O       0.26624837       1.88294940       1.32791636        8 
C       1.45837002       2.87606222      -0.84657244        6 
C       3.40581093      -0.65143205       0.51905021        6 
C      -1.05277768      -2.30517110      -0.07931729        6 
C      -2.43085238      -2.14611832      -0.08215819        6 
C      -2.98002484      -0.86828908      -0.00609190        6 
C      -2.17028081       0.26580500       0.08612686        6 
H       0.92332187       3.74526694      -0.46139135        1 
H       3.72515979      -1.59792884       0.95727321        1 
H      -4.05775437      -0.74485662      -0.02099334        1 
H       2.31542927       2.66804744      -0.20404216        1 
H       1.77805859       3.04511040      -1.87228712        1 
H       3.80460739       0.18700655       1.08546709        1 
H       3.73007748      -0.60903486      -0.52186690        1 
H      -3.07852176      -3.01240199      -0.15345531        1 
H      -0.60353941      -3.28613991      -0.16747490        1 
C      -2.78718045       1.64171853       0.16825391        6 
H      -2.40260082       2.29652908      -0.61929222        1 
H      -2.56139882       2.11574688       1.12689508        1 
H      -3.87146742       1.58810995       0.05994409        1 
