27
Lattice="0.0 0.0 0.0 0.0 0.0 0.0 0.0 0.0 0.0" Properties=species:S:1:pos:R:3:Z:I:1 pbc="F F F"
C       0.64113369      -0.86975841      -0.11852709        6 
C      -0.65177865      -0.31622191      -0.01798955        6 
C       1.86900026      -0.03412089      -0.36979067        6 
C      -0.72453243       1.17680238       0.02418690        6 
O       2.58563471       0.12816756       0.75421958        8 
O       2.21311169       0.33700604      -1.46364266        8 
O      -1.97294078       1.66971928      -0.09395300        8 
O       0.24501620       1.89408701       0.13228697        8 
C      -2.08488474       3.10471920      -0.07832344        6 
C       3.77417676       0.93082102       0.62386372        6 
C       0.83248999      -2.24822573      -0.09774275        6 
C      -0.26243370      -3.09526041       0.02315733        6 
C      -1.53983626      -2.55926459       0.12070058        6 
C      -1.77047499      -1.17852073       0.10581533        6 
H      -1.70433948       3.50651432       0.86177101        1 
H       4.45818511       0.48872754      -0.10227308        1 
H      -2.38979977      -3.22566411       0.21686858        1 
H      -1.52425289       3.53798360      -0.90750541        1 
H      -3.14798719       3.31059031      -0.18273232        1 
H       4.22205987       0.94655245       1.61489550        1 
H       3.50683805       1.93918311       0.30487517        1 
H      -0.12185030      -4.17017847       0.04090399        1 
H       1.83411953      -2.65175690      -0.18404010        1 
C      -3.20517742      -0.71949943       0.23924438        6 
H      -3.53679041      -0.17803675      -0.64816716        1 
H      -3.33884155      -0.04455331       1.08607548        1 
H      -3.85562667      -1.58433508       0.38049748        1 
