27
Lattice="0.0 0.0 0.0 0.0 0.0 0.0 0.0 0.0 0.0" Properties=species:S:1:pos:R:3:Z:I:1 pbc="F F F"
C      -0.13640752      -1.15330840      -0.19200363        6 
C      -0.74492962       0.08594537       0.07719603        6 
C       1.32480379      -1.42659448      -0.01044786        6 
C       0.03604553       1.36065755       0.24060863        6 
O       2.08950020      -0.32032238      -0.05526173        8 
O       1.77275379      -2.52565501       0.22422567        8 
O       0.49129380       1.79305219      -0.94830882        8 
O       0.12598488       1.98875365       1.26731265        8 
C       1.26118918       3.00731914      -0.92329666        6 
C       3.48596791      -0.50728754       0.23836360        6 
C      -0.93487715      -2.27746050      -0.43397388        6 
C      -2.31718984      -2.16823438      -0.44324502        6 
C      -2.91329531      -0.94197300      -0.16240318        6 
C      -2.14807334       0.19637438       0.10218817        6 
H       0.67920820       3.82504594      -0.49589390        1 
H       3.61084881      -0.92015096       1.24028700        1 
H      -3.99503116      -0.85949660      -0.15190304        1 
H       2.16730119       2.86375368      -0.33176802        1 
H       1.51153415       3.21279898      -1.96155704        1 
H       3.92941743       0.48356924       0.17321268        1 
H       3.94008663      -1.18138372      -0.48892322        1 
H      -2.93121224      -3.03789300      -0.64746302        1 
H      -0.44982153      -3.23196008      -0.59203906        1 
C      -2.83082723       1.51234005       0.39201645        6 
H      -2.51737599       2.28838917      -0.31286164        1 
H      -2.58846495       1.86977301       1.39511932        1 
H      -3.91385677       1.40720309       0.31373013        1 
