27
Lattice="0.0 0.0 0.0 0.0 0.0 0.0 0.0 0.0 0.0" Properties=species:S:1:pos:R:3:Z:I:1 pbc="F F F"
C       0.22837221      -1.17905120      -0.10731661        6 
C      -0.67489292      -0.09722392      -0.02007657        6 
C       1.71991335      -1.02625297      -0.09684232        6 
C      -0.16540245       1.27057789      -0.36400161        6 
O       2.11764505      -0.01590602       0.69817174        8 
O       2.48146798      -1.79934983      -0.62814188        8 
O      -0.76133716       2.24820848       0.34721871        8 
O       0.70212279       1.48212538      -1.17745894        8 
C      -0.32430210       3.58875921       0.05824613        6 
C       3.53422298       0.22530778       0.74330362        6 
C      -0.23421767      -2.49196568      -0.04940683        6 
C      -1.59251254      -2.74552736       0.10387995        6 
C      -2.48233548      -1.68439527       0.20248530        6 
C      -2.05527837      -0.35168489       0.12836920        6 
H       0.74250328       3.69104917       0.26145504        1 
H       4.06375809      -0.66549729       1.08395273        1 
H      -3.54221580      -1.88429019       0.31696868        1 
H      -0.51504011       3.83635890      -0.98716044        1 
H      -0.90513729       4.23000131       0.71747354        1 
H       3.66584935       1.04419081       1.44693747        1 
H       3.89683091       0.50748071      -0.24646420        1 
H      -1.95535900      -3.76613031       0.14927384        1 
H       0.48306121      -3.30041879      -0.11109611        1 
C      -3.10967401       0.73243458       0.16717313        6 
H      -3.03543002       1.40117458      -0.69322348        1 
H      -3.01149132       1.35101483       1.06052099        1 
H      -4.10471467       0.28419569       0.16168082        1 
