27
Lattice="0.0 0.0 0.0 0.0 0.0 0.0 0.0 0.0 0.0" Properties=species:S:1:pos:R:3:Z:I:1 pbc="F F F"
C       0.29533790      -1.19839157       0.15642969        6 
C      -0.66410571      -0.16418581       0.09692627        6 
C       1.77556714      -1.01856069      -0.04369207        6 
C      -0.32369999       1.27706573       0.36764557        6 
O       2.23937811       0.18394347       0.31663575        8 
O       2.47283510      -1.87106726      -0.54821061        8 
O      -0.69837852       2.07016230      -0.66064601        8 
O       0.22327782       1.68509427       1.35828452        8 
C      -0.45226130       3.47824896      -0.48994377        6 
C       3.63967147       0.41926366       0.08792574        6 
C      -0.12676883      -2.53218788       0.13553036        6 
C      -1.47596438      -2.85083032       0.10737828        6 
C      -2.41871162      -1.83164642       0.04418319        6 
C      -2.03792728      -0.48736858       0.03885696        6 
H      -1.01646259       3.86384524       0.36107066        1 
H       4.24080909      -0.30883974       0.63410237        1 
H      -3.47489959      -2.07715689       0.01156079        1 
H       0.61070576       3.66155999      -0.32755569        1 
H      -0.78660803       3.94449389      -1.41399914        1 
H       3.82339146       1.42483473       0.45887523        1 
H       3.87057634       0.34821987      -0.97634655        1 
H      -1.79282792      -3.88746058       0.11645035        1 
H       0.62640973      -3.30890293       0.11830563        1 
C      -3.11644980       0.57366917       0.01218635        6 
H      -3.11487818       1.11651469      -0.93518179        1 
H      -2.98002934       1.30936837       0.80925284        1 
H      -4.09854707       0.11718509       0.14585148        1 
