27
Lattice="0.0 0.0 0.0 0.0 0.0 0.0 0.0 0.0 0.0" Properties=species:S:1:pos:R:3:Z:I:1 pbc="F F F"
C       0.28607313      -0.86583520      -0.16566266        6 
C      -0.86937622      -0.08097723       0.02315407        6 
C       1.69051068      -0.33579746      -0.29393879        6 
C      -0.81130033       1.40063200       0.26304071        6 
O       2.46630448      -0.86356513       0.68300523        8 
O       2.11288694       0.39465479      -1.15133605        8 
O      -0.01641511       2.03183901      -0.60783441        8 
O      -1.44353208       1.96847696       1.12542240        8 
C       0.14661963       3.44879706      -0.42392352        6 
C       3.86471144      -0.52569976       0.62462747        6 
C       0.17314862      -2.25550424      -0.27485344        6 
C      -1.07410976      -2.86419509      -0.25573927        6 
C      -2.21495854      -2.08787770      -0.09404419        6 
C      -2.13849803      -0.70257987       0.07060614        6 
H      -0.79764113       3.96680248      -0.60031428        1 
H       4.30076813      -0.86955065      -0.31490446        1 
H      -3.19044611      -2.56180565      -0.08391245        1 
H       0.49017156       3.66451062       0.58872776        1 
H       0.89248684       3.74553649      -1.15736336        1 
H       4.32039237      -1.03655853       1.46987397        1 
H       4.00056471       0.55348925       0.70834670        1 
H      -1.15663140      -3.93961456      -0.36510595        1 
H       1.06973864      -2.85227091      -0.38585073        1 
C      -3.42167093       0.07001044       0.27503780        6 
H      -3.47205935       0.95589814      -0.36124873        1 
H      -3.51086276       0.41782678       1.30586207        1 
H      -4.27925955      -0.56505830       0.04516147        1 
