27
Lattice="0.0 0.0 0.0 0.0 0.0 0.0 0.0 0.0 0.0" Properties=species:S:1:pos:R:3:Z:I:1 pbc="F F F"
C      -0.06534175      -0.95843890      -0.11496239        6 
C      -0.89102285       0.18314372      -0.02577536        6 
C       1.42519022      -0.92685239      -0.33006025        6 
C      -0.30890942       1.55910168       0.00222919        6 
O       2.08320505      -1.07534993       0.83431328        8 
O       1.95644212      -0.88947065      -1.41073424        8 
O       1.03761731       1.54428016      -0.06627046        8 
O      -0.93745973       2.58944277       0.09678653        8 
C       1.69516153       2.82104915      -0.06982747        6 
C       3.51927158      -1.11291100       0.74040136        6 
C      -0.61778641      -2.23759111      -0.08743506        6 
C      -1.99267515      -2.40102951       0.02401519        6 
C      -2.81276995      -1.28362379       0.10251827        6 
C      -2.29579984       0.01598402       0.08284651        6 
H       1.35427110       3.42180318      -0.91389870        1 
H       3.84112029      -1.96271068       0.13625910        1 
H      -3.88588556      -1.41314039       0.18668278        1 
H       1.49352731       3.35653391       0.85921183        1 
H       2.75541448       2.59741974      -0.16376432        1 
H       3.87309634      -1.21257867       1.76390006        1 
H       3.89273972      -0.19176139       0.29044471        1 
H      -2.42278355      -3.39615484       0.04492537        1 
H       0.03151197      -3.10198040      -0.16061377        1 
C      -3.27975187       1.15746669       0.18013281        6 
H      -3.21382791       1.81960834      -0.68474705        1 
H      -3.08862119       1.78286826       1.05371777        1 
H      -4.29497837       0.76122086       0.24480167        1 
