27
Lattice="0.0 0.0 0.0 0.0 0.0 0.0 0.0 0.0 0.0" Properties=species:S:1:pos:R:3:Z:I:1 pbc="F F F"
C      -0.23526787      -1.08583478      -0.07313736        6 
C      -0.85414889       0.16930222       0.02068344        6 
C       1.24967124      -1.22614230      -0.22820728        6 
C      -0.01448709       1.39974261       0.18172013        6 
O       1.90036680      -0.80551923       0.87484155        8 
O       1.79656302      -1.64122897      -1.21873074        8 
O       0.84618019       1.53660845      -0.84645300        8 
O      -0.06221591       2.15116172       1.12424218        8 
C       1.79721022       2.61250699      -0.74076373        6 
C       3.33864325      -0.84912946       0.81260129        6 
C      -1.00854709      -2.24551382      -0.14350578        6 
C      -2.39393347      -2.15616286      -0.08652090        6 
C      -3.00619311      -0.90987203       0.01540389        6 
C      -2.25659523       0.26738104       0.07892767        6 
H       1.28355524       3.57405124      -0.70317253        1 
H       3.68125126      -1.87266852       0.65461882        1 
H      -4.08855457      -0.84475166       0.04595563        1 
H       2.40187051       2.49277209       0.15977377        1 
H       2.41358364       2.54009782      -1.63376776        1 
H       3.68061665      -0.47340152       1.77410067        1 
H       3.70223013      -0.22012534      -0.00164173        1 
H      -2.99805005      -3.05518417      -0.13184989        1 
H      -0.52113993      -3.20757271      -0.24604571        1 
C      -2.95402917       1.60043511       0.20322663        6 
H      -2.58876125       2.31812358      -0.53623462        1 
H      -2.78154889       2.03916110       1.18869317        1 
H      -4.02930877       1.48404746       0.05803837        1 
