27
Lattice="0.0 0.0 0.0 0.0 0.0 0.0 0.0 0.0 0.0" Properties=species:S:1:pos:R:3:Z:I:1 pbc="F F F"
C       0.76867584       0.66196851       0.17265621        6 
C      -0.59601209       0.31967314      -0.00046078        6 
C       1.83726524      -0.37491658      -0.04319492        6 
C      -1.06947581      -1.07060043       0.34071996        6 
O       3.07246936       0.18335069      -0.08050599        8 
O       1.66657585      -1.56255220      -0.16019505        8 
O      -1.99221880      -1.52312932      -0.53690957        8 
O      -0.65210749      -1.72636695       1.25869797        8 
C      -2.48234548      -2.85558582      -0.29713003        6 
C       4.16003431      -0.73697047      -0.27348843        6 
C       1.14290467       2.00638413       0.21575674        6 
C       0.18458138       3.00953880       0.12765419        6 
C      -1.14778822       2.67289293      -0.06111020        6 
C      -1.56623493       1.33692889      -0.11243354        6 
H      -1.65826911      -3.56983570      -0.31847198        1 
H       4.19299166      -1.46529850       0.53841752        1 
H      -1.89327412       3.45626441      -0.14535258        1 
H      -2.98166188      -2.91220652       0.67177384        1 
H      -3.18623143      -3.05387017      -1.10266269        1 
H       5.05915804      -0.12461567      -0.27796049        1 
H       4.04943242      -1.26532772      -1.22182056        1 
H       0.48155863       4.05044261       0.18279534        1 
H       2.19089665       2.25672496       0.29455712        1 
C      -3.04913830       1.05892935      -0.23796611        6 
H      -3.41320933       0.41931941       0.56981988        1 
H      -3.28218586       0.55009899      -1.17442544        1 
H      -3.60968932       1.99462194      -0.20230237        1 
