27
Lattice="0.0 0.0 0.0 0.0 0.0 0.0 0.0 0.0 0.0" Properties=species:S:1:pos:R:3:Z:I:1 pbc="F F F"
C       0.68924143      -0.71481709      -0.04452466        6 
C      -0.65169791      -0.28065700       0.08856578        6 
C       1.87470135       0.14273578       0.30971479        6 
C      -0.88664856       1.19749630      -0.03163224        6 
O       2.79041538       0.13916284      -0.68084918        8 
O       2.02361213       0.69421018       1.36832706        8 
O      -2.18639106       1.51439534      -0.22080642        8 
O      -0.02225541       2.04013409       0.00793416        8 
C      -2.47421820       2.91570281      -0.37081031        6 
C       3.99740633       0.87885087      -0.41590494        6 
C       0.97978083      -2.06170358      -0.25137431        6 
C      -0.04496449      -3.00115625      -0.28016103        6 
C      -1.35343287      -2.59120503      -0.07448235        6 
C      -1.69256285      -1.24112873       0.09173207        6 
H      -2.15527039       3.46818357       0.51381742        1 
H       3.76202901       1.92479098      -0.21535684        1 
H      -2.14726652      -3.33006804      -0.05927966        1 
H      -1.96444653       3.31821979      -1.24739304        1 
H      -3.55362403       2.97490133      -0.49448176        1 
H       4.59774613       0.78443059      -1.31809680        1 
H       4.52260855       0.45631898       0.44237878        1 
H       0.17936926      -4.05021407      -0.43712723        1 
H       2.01171539      -2.37082472      -0.35995906        1 
C      -3.16293956      -0.93207636       0.27407573        6 
H      -3.59307770      -0.48681462      -0.62537544        1 
H      -3.33685488      -0.22927421       1.08834114        1 
H      -3.70251718      -1.85602910       0.49108126        1 
