27
Lattice="0.0 0.0 0.0 0.0 0.0 0.0 0.0 0.0 0.0" Properties=species:S:1:pos:R:3:Z:I:1 pbc="F F F"
C       0.53428963      -0.71699662      -0.19945693        6 
C      -0.75807406      -0.26191401       0.14532034        6 
C       1.73602751       0.14331827       0.06767664        6 
C      -1.09312785       1.20101988       0.24583849        6 
O       2.84686124      -0.61495009       0.22635080        8 
O       1.76409460       1.34893432       0.12867107        8 
O      -0.71978829       1.84480938      -0.87152427        8 
O      -1.78294294       1.69621449       1.10638546        8 
C      -0.94337864       3.26418374      -0.89074451        6 
C       4.06789150       0.10475165       0.46836527        6 
C       0.72849352      -2.06184434      -0.53003527        6 
C      -0.34707510      -2.94039271      -0.55569215        6 
C      -1.60997567      -2.49547446      -0.18638714        6 
C      -1.84358168      -1.16094373       0.16519332        6 
H      -1.99395472       3.49368775      -0.70735245        1 
H       4.28859293       0.77443792      -0.36429956        1 
H      -2.44365889      -3.18937949      -0.18227144        1 
H      -0.32481243       3.74426189      -0.13072425        1 
H      -0.64399097       3.58989431      -1.88433432        1 
H       4.83731106      -0.65850408       0.56274881        1 
H       3.99093046       0.68808338       1.38711339        1 
H      -0.19578793      -3.97667318      -0.83563846        1 
H       1.72644376      -2.41391315      -0.74886966        1 
C      -3.25146428      -0.73682013       0.51655924        6 
H      -3.59690409       0.08410423      -0.11714321        1 
H      -3.31422828      -0.38362527       1.54698793        1 
H      -3.93830630      -1.57552638       0.39056730        1 
