27
Lattice="0.0 0.0 0.0 0.0 0.0 0.0 0.0 0.0 0.0" Properties=species:S:1:pos:R:3:Z:I:1 pbc="F F F"
C       0.67193384      -0.76746311       0.01264383        6 
C      -0.65674407      -0.29411172      -0.07898431        6 
C       1.87282049       0.07890508      -0.31870029        6 
C      -0.83400596       1.19164984       0.01678098        6 
O       2.71379500       0.16423660       0.72966545        8 
O       2.09129969       0.54215877      -1.40762812        8 
O      -2.11900767       1.57142399       0.17780715        8 
O       0.07039327       1.99266260      -0.02999068        8 
C      -2.34487980       2.98793787       0.29096270        6 
C       3.91893941       0.91979717       0.50113155        6 
C       0.93307675      -2.12453148       0.18503250        6 
C      -0.11678799      -3.03460972       0.23057700        6 
C      -1.42057484      -2.58379774       0.08372570        6 
C      -1.72650998      -1.22338430      -0.05385246        6 
H      -1.80789838       3.39259922       1.14989915        1 
H       4.50882848       0.46502739      -0.29642016        1 
H      -2.23516310      -3.29961882       0.09094974        1 
H      -2.01265631       3.50009848      -0.61299497        1 
H      -3.41928771       3.09705500       0.42305815        1 
H       4.46053491       0.89151349       1.44395539        1 
H       3.67164672       1.94621012       0.22712418        1 
H       0.08202444      -4.09245187       0.36103129        1 
H       1.95879584      -2.46483318       0.25687645        1 
C      -3.19217494      -0.86638117      -0.17190027        6 
H      -3.38340451      -0.19668174      -1.01051159        1 
H      -3.55397865      -0.35951224       0.72469199        1 
H      -3.77812210      -1.77648590      -0.31237759        1 
