27
Lattice="0.0 0.0 0.0 0.0 0.0 0.0 0.0 0.0 0.0" Properties=species:S:1:pos:R:3:Z:I:1 pbc="F F F"
C       0.60419886      -0.86441775      -0.19605258        6 
C      -0.65428814      -0.29875347       0.05727326        6 
C       1.81527925       0.00679017      -0.35704887        6 
C      -0.72588696       1.18672624       0.23721487        6 
O       2.71695268      -0.22936439       0.60919742        8 
O       1.98658012       0.76797429      -1.27799404        8 
O      -1.69731394       1.74286925      -0.50848816        8 
O       0.00363774       1.81632640       0.96619960        8 
C      -1.83290559       3.17333991      -0.40372743        6 
C       3.92425758       0.55503949       0.54433696        6 
C       0.74247162      -2.24420217      -0.33472448        6 
C      -0.37882951      -3.06080642      -0.23484316        6 
C      -1.62578365      -2.50085616       0.02336271        6 
C      -1.79244303      -1.12021181       0.17060140        6 
H      -2.05806243       3.46025508       0.62454254        1 
H       4.44760279       0.37445474      -0.39594555        1 
H      -2.49242878      -3.14589058       0.12031707        1 
H      -0.91186459       3.66261273      -0.72241335        1 
H      -2.65576024       3.43333653      -1.06568053        1 
H       4.52518901       0.22839534       1.38977653        1 
H       3.68465189       1.61574821       0.62837427        1 
H      -0.27986098      -4.13457702      -0.34723601        1 
H       1.71993136      -2.67121391      -0.52246896        1 
C      -3.16852030      -0.57110589       0.46768992        6 
H      -3.57612467      -0.04461116      -0.39801488        1 
H      -3.15243096       0.13875054       1.29831349        1 
H      -3.85078929      -1.38111794       0.73178963        1 
