27
Lattice="0.0 0.0 0.0 0.0 0.0 0.0 0.0 0.0 0.0" Properties=species:S:1:pos:R:3:Z:I:1 pbc="F F F"
C       0.47007153      -0.79071304      -0.13374615        6 
C      -0.79386536      -0.21586532       0.12462168        6 
C       1.71634810      -0.01423855       0.16232239        6 
C      -0.98786970       1.27327694       0.19082479        6 
O       2.82804895      -0.76736818       0.00139316        8 
O       1.76142991       1.14427019       0.50359900        8 
O      -0.46716606       1.86497908      -0.89920130        8 
O      -1.67692005       1.84704228       1.00030297        8 
C      -0.54025173       3.30000472      -0.93019358        6 
C       4.07642806      -0.10945866       0.27576477        6 
C       0.56494637      -2.15668909      -0.41694705        6 
C      -0.58000756      -2.94246699      -0.46710341        6 
C      -1.81763048      -2.37747729      -0.18737272        6 
C      -1.95312951      -1.01518887       0.10745155        6 
H      -1.57519101       3.63617796      -0.85160772        1 
H       4.22849964       0.72294395      -0.41321627        1 
H      -2.70766100      -2.99714546      -0.20960301        1 
H       0.04379164       3.71654128      -0.10780609        1 
H      -0.11181742       3.59034001      -1.88686692        1 
H       4.84049556      -0.87025558       0.13173202        1 
H       4.09335300       0.26526989       1.30020157        1 
H      -0.50453112      -3.99818783      -0.70144916        1 
H       1.53875589      -2.59727081      -0.57621670        1 
C      -3.33434583      -0.45829953       0.36465698        6 
H      -3.56440710       0.37921248      -0.29873385        1 
H      -3.42557802      -0.08242094       1.38495357        1 
H      -4.08747425      -1.23254884       0.20787309        1 
