27
Lattice="0.0 0.0 0.0 0.0 0.0 0.0 0.0 0.0 0.0" Properties=species:S:1:pos:R:3:Z:I:1 pbc="F F F"
C       0.67939970      -0.77790386      -0.06253122        6 
C      -0.64975222      -0.31080060      -0.00251196        6 
C       1.82871198       0.15123121      -0.32736713        6 
C      -0.84043412       1.16028294       0.20677257        6 
O       2.83332398      -0.04855831       0.54569382        8 
O       1.88058244       0.91743956      -1.25697946        8 
O      -2.01641187       1.61707026      -0.26612560        8 
O      -0.01684206       1.87806622       0.72363654        8 
C      -2.24875860       3.02979705      -0.11243152        6 
C       4.00751270       0.75919085       0.33864118        6 
C       0.95267285      -2.14317703      -0.06660536        6 
C      -0.09382364      -3.05875713      -0.02417793        6 
C      -1.40415557      -2.60445877       0.02579201        6 
C      -1.71445695      -1.23781775       0.04964136        6 
H      -2.21963234       3.31004862       0.94154736        1 
H       4.43841225       0.56010818      -0.64396164        1 
H      -2.21616614      -3.32225580       0.06647788        1 
H      -1.49261825       3.59766927      -0.65595691        1 
H      -3.23712642       3.20576010      -0.53126250        1 
H       4.69826411       0.47207722       1.12819048        1 
H       3.75306985       1.81714049       0.41336792        1 
H       0.11252223      -4.12308039      -0.03075269        1 
H       1.97972543      -2.48182823      -0.11702549        1 
C      -3.17320676      -0.85339310       0.16168630        6 
H      -3.51815405      -0.33815476      -0.73627977        1 
H      -3.35459443      -0.17900211       1.00087723        1 
H      -3.78203888      -1.74776481       0.30412392        1 
