27
Lattice="0.0 0.0 0.0 0.0 0.0 0.0 0.0 0.0 0.0" Properties=species:S:1:pos:R:3:Z:I:1 pbc="F F F"
C       0.73784578       0.68240387       0.08455391        6 
C      -0.62397676       0.30119873      -0.04693237        6 
C       1.84508696      -0.27231394      -0.26951412        6 
C      -0.95527758      -1.13840041       0.24379494        6 
O       3.00381351       0.06182893       0.34259945        8 
O       1.74003794      -1.21102884      -1.01706737        8 
O      -2.18870281      -1.49887291      -0.17481009        8 
O      -0.19560030      -1.92268342       0.75655221        8 
C      -2.54757373      -2.87422133       0.04848246        6 
C       4.12455693      -0.79157154       0.04984222        6 
C       1.08368948       2.02661861       0.19396152        6 
C       0.09683366       3.00838246       0.17586754        6 
C      -1.22873712       2.64298526       0.01083060        6 
C      -1.62387841       1.29834876      -0.07972140        6 
H      -1.85821733      -3.53562786      -0.47800769        1 
H       3.90691983      -1.81687084       0.35276553        1 
H      -1.99440870       3.41030614      -0.02100137        1 
H      -2.52581063      -3.10912400       1.11373067        1 
H      -3.55630000      -2.97556766      -0.34682394        1 
H       4.95425200      -0.38828280       0.62628106        1 
H       4.35151000      -0.77428870      -1.01739935        1 
H       0.36718313       4.05411224       0.26703892        1 
H       2.12873842       2.29691330       0.26014043        1 
C      -3.11028559       1.02841009      -0.17567684        6 
H      -3.47325713       0.44659382       0.67372077        1 
H      -3.35963039       0.46051316      -1.07228846        1 
H      -3.65464085       1.97416638      -0.19909317        1 
