27
Lattice="0.0 0.0 0.0 0.0 0.0 0.0 0.0 0.0 0.0" Properties=species:S:1:pos:R:3:Z:I:1 pbc="F F F"
C       0.62025688      -0.80928138      -0.14857911        6 
C      -0.66799673      -0.31233799       0.09126436        6 
C       1.77767091       0.13311718      -0.19341219        6 
C      -0.87204677       1.15434610       0.35093714        6 
O       2.86874800      -0.38885431       0.39858752        8 
O       1.76098360       1.21155622      -0.73960221        8 
O      -1.48296280       1.75102904      -0.68472400        8 
O      -0.57449824       1.70994987       1.37975471        8 
C      -1.71390535       3.16717076      -0.54960252        6 
C       4.05573767       0.42621193       0.35798037        6 
C       0.81758487      -2.17988958      -0.33486057        6 
C      -0.27237046      -3.04208329      -0.31963088        6 
C      -1.55066823      -2.54297901      -0.08420502        6 
C      -1.77245264      -1.17922679       0.12684553        6 
H      -2.37468943       3.36600737       0.29586691        1 
H       4.36123542       0.60156134      -0.67476760        1 
H      -2.39567880      -3.22287506      -0.05807848        1 
H      -0.76696850       3.68761880      -0.40319472        1 
H      -2.18066086       3.47247476      -1.48323121        1 
H       4.81315283      -0.14233796       0.89264837        1 
H       3.87368080       1.38329825       0.84818184        1 
H      -0.12673784      -4.10418304      -0.48046955        1 
H       1.81873826      -2.55759895      -0.49615555        1 
C      -3.16798610      -0.66530709       0.38994626        6 
H      -3.53138850      -0.07249449      -0.45379881        1 
H      -3.19800675      -0.02545016       1.27617352        1 
H      -3.86228549      -1.49180239       0.55007837        1 
