27
Lattice="0.0 0.0 0.0 0.0 0.0 0.0 0.0 0.0 0.0" Properties=species:S:1:pos:R:3:Z:I:1 pbc="F F F"
C       0.67746294      -0.76991103       0.00274629        6 
C      -0.65485767      -0.30454938       0.07781446        6 
C       1.86863288       0.08974218       0.33461642        6 
C      -0.83802956       1.17991695      -0.02166563        6 
O       2.71110745       0.17863028      -0.71191592        8 
O       2.07949569       0.55901956       1.42266425        8 
O      -2.12719559       1.55903300      -0.14357368        8 
O       0.06745042       1.98124235      -0.00458423        8 
C      -2.35668369       2.97525404      -0.25343152        6 
C       3.90580951       0.95134799      -0.48700724        6 
C       0.94956399      -2.12575481      -0.16066622        6 
C      -0.09403539      -3.04254941      -0.21496273        6 
C      -1.40244985      -2.59929358      -0.08736166        6 
C      -1.71877157      -1.24037970       0.04199362        6 
H      -2.00063425       3.48899428       0.64053299        1 
H       3.64444066       1.97719450      -0.22408145        1 
H      -2.21237357      -3.32023018      -0.10373465        1 
H      -1.84312768       3.37858891      -1.12716405        1 
H      -3.43431792       3.08372238      -0.35668081        1 
H       4.45055832       0.92098562      -1.42798383        1 
H       4.49913160       0.51191768       0.31653001        1 
H       0.11285490      -4.09957417      -0.33935969        1 
H       1.97815965      -2.45968694      -0.22056186        1 
C      -3.18829367      -0.89222128       0.13498263        6 
H      -3.53440767      -0.37220647      -0.76023147        1 
H      -3.40026821      -0.23742253       0.98040772        1 
H      -3.77255841      -1.80720435       0.24808481        1 
