27
Lattice="0.0 0.0 0.0 0.0 0.0 0.0 0.0 0.0 0.0" Properties=species:S:1:pos:R:3:Z:I:1 pbc="F F F"
C       0.05288980      -1.22525307      -0.02623388        6 
C      -0.71103862      -0.05029518       0.06413260        6 
C       1.54482445      -1.22446083       0.08982274        6 
C      -0.01572240       1.24577097       0.35583922        6 
O       2.10284716      -0.27907596      -0.69193802        8 
O       2.17317788      -1.98802945       0.78074680        8 
O      -0.31587525       2.19296340      -0.55174258        8 
O       0.71757469       1.42712968       1.29775546        8 
C       0.30137240       3.47763095      -0.34431598        6 
C       3.52760758      -0.11945636      -0.56315784        6 
C      -0.57341332      -2.46048031      -0.19474145        6 
C      -1.95728487      -2.52497311      -0.30042106        6 
C      -2.71311187      -1.36031409      -0.21042342        6 
C      -2.11437701      -0.11028311      -0.02355137        6 
H       0.00901129       3.88984637       0.62259986        1 
H       3.77459237       0.20162402       0.44993670        1 
H      -3.79461234      -1.41869843      -0.27275809        1 
H       1.38761394       3.38399518      -0.38110361        1 
H      -0.05776156       4.10539723      -1.15648430        1 
H       3.79963838       0.64536229      -1.28701188        1 
H       4.03864532      -1.05772875      -0.78241431        1 
H      -2.44877937      -3.48108766      -0.44006804        1 
H       0.03180020      -3.35728902      -0.24125404        1 
C      -2.98524611       1.11805693       0.10176545        6 
H      -2.90935224       1.74455642      -0.78981945        1 
H      -2.69564504       1.73542965       0.95600663        1 
H      -4.03005448       0.83238010       0.23456400        1 
