27
Lattice="0.0 0.0 0.0 0.0 0.0 0.0 0.0 0.0 0.0" Properties=species:S:1:pos:R:3:Z:I:1 pbc="F F F"
C       0.27030237      -0.94166678      -0.16350939        6 
C      -0.84081350      -0.09568322      -0.04063126        6 
C       1.64182308      -0.36212759      -0.28866027        6 
C      -0.69059917       1.38731971      -0.23852002        6 
O       2.52358309      -1.01896097       0.49310143        8 
O       1.95155404       0.53806870      -1.03278675        8 
O      -0.14152611       1.97385175       0.84151312        8 
O      -0.99907559       1.96952680      -1.24623079        8 
C       0.17747537       3.37317273       0.69790451        6 
C       3.89511232      -0.59348922       0.38444426        6 
C       0.10446407      -2.32752559      -0.08412267        6 
C      -1.16711080      -2.86422501       0.07273168        6 
C      -2.26846144      -2.01968937       0.18797350        6 
C      -2.12884760      -0.63104953       0.12731036        6 
H       0.87930126       3.50838417      -0.12609417        1 
H       4.25685023      -0.73628458      -0.63502428        1 
H      -3.25804847      -2.44321557       0.32348997        1 
H      -0.72586079       3.95400576       0.50635933        1 
H       0.62862486       3.66425655       1.64371823        1 
H       4.44716456      -1.22038437       1.08091957        1 
H       3.98865429       0.45898408       0.65499753        1 
H      -1.30106238      -3.93898388       0.11753076        1 
H       0.97161882      -2.97189885      -0.14671674        1 
C      -3.33906110       0.26596071       0.22671964        6 
H      -3.53574876       0.75971710      -0.72881793        1 
H      -3.19571729       1.05086379       0.97453903        1 
H      -4.22523650      -0.30662905       0.50516659        1 
