27
Lattice="0.0 0.0 0.0 0.0 0.0 0.0 0.0 0.0 0.0" Properties=species:S:1:pos:R:3:Z:I:1 pbc="F F F"
C      -0.14730243      -1.13950944      -0.07908019        6 
C      -0.81066456       0.08401214       0.06880969        6 
C       1.33951463      -1.20078073      -0.26609740        6 
C      -0.02439880       1.34605349       0.28378490        6 
O       1.99159010      -0.87258212       0.86430902        8 
O       1.88416778      -1.47155004      -1.30754493        8 
O       0.47942066       1.80633985      -0.87753743        8 
O       0.16548113       1.86489004       1.35484953        8 
C       1.30522469       2.98447964      -0.78985887        6 
C       3.42930826      -0.83704854       0.77982199        6 
C      -0.88042433      -2.32140793      -0.20303876        6 
C      -2.26795599      -2.28412623      -0.14027252        6 
C      -2.92409544      -1.06555949       0.01519739        6 
C      -2.21386879       0.13174999       0.12455027        6 
H       0.73457542       3.82042650      -0.38294269        1 
H       3.81873096      -1.82247301       0.51999100        1 
H      -4.00794255      -1.03962824       0.05227490        1 
H       2.16950951       2.79475410      -0.15144748        1 
H       1.61895281       3.19192631      -1.81012694        1 
H       3.76797099      -0.53723102       1.76861582        1 
H       3.74616808      -0.11486507       0.02573023        1 
H      -2.83974833      -3.20137593      -0.22313499        1 
H      -0.36040091      -3.26016745      -0.35241359        1 
C      -2.93870922       1.44344741       0.30480111        6 
H      -2.64522935       2.16874515      -0.46008236        1 
H      -2.71192940       1.88416169       1.27916906        1 
H      -4.01849140       1.30242262       0.23609986        1 
