27
Lattice="0.0 0.0 0.0 0.0 0.0 0.0 0.0 0.0 0.0" Properties=species:S:1:pos:R:3:Z:I:1 pbc="F F F"
C       0.54304770      -0.95442952      -0.24090582        6 
C      -0.61377123      -0.22162615       0.08852281        6 
C       1.92503049      -0.36808935      -0.33920372        6 
C      -0.54668807       1.27875804       0.04682059        6 
O       2.35628939       0.06147565       0.85231753        8 
O       2.61057629      -0.42027081      -1.33357233        8 
O      -1.61796374       1.79034601      -0.59963782        8 
O       0.34575378       1.96898580       0.47501213        8 
C      -1.65086139       3.22323971      -0.72984027        6 
C       3.66490215       0.65956511       0.87421761        6 
C       0.47171551      -2.33574250      -0.42319492        6 
C      -0.72976552      -3.00285161      -0.21848542        6 
C      -1.85739518      -2.28924298       0.16999682        6 
C      -1.83401874      -0.89779080       0.30568904        6 
H      -1.67572983       3.69634236       0.25321717        1 
H       4.41590496      -0.04635030       0.51623341        1 
H      -2.78564161      -2.81729673       0.36112156        1 
H      -0.77436725       3.57518699      -1.27543960        1 
H      -2.56119855       3.44074999      -1.28411740        1 
H       3.84319847       0.92153867       1.91429179        1 
H       3.67439309       1.55259347       0.24791224        1 
H      -0.78359109      -4.07819137      -0.34538934        1 
H       1.36500235      -2.87883710      -0.70595757        1 
C      -3.11421898      -0.19776345       0.70373712        6 
H      -3.61904694       0.22578218      -0.16737988        1 
H      -2.93600665       0.62045362       1.40316638        1 
H      -3.79280404      -0.90820256       1.18028114        1 
