27
Lattice="0.0 0.0 0.0 0.0 0.0 0.0 0.0 0.0 0.0" Properties=species:S:1:pos:R:3:Z:I:1 pbc="F F F"
C      -0.11852507      -1.14438495      -0.20794758        6 
C      -0.75678004       0.08060101       0.05747459        6 
C       1.33188221      -1.40303846       0.07789341        6 
C      -0.00302773       1.36839768       0.24023253        6 
O       2.14996806      -0.39871087      -0.28177922        8 
O       1.71816795      -2.40013208       0.64250587        8 
O       0.54796636       1.76795638      -0.91784274        8 
O      -0.01184334       2.03659696       1.24664349        8 
C       1.30237697       2.99084783      -0.87080094        6 
C       3.53561188      -0.56159150       0.07641165        6 
C      -0.88845565      -2.28074175      -0.48014747        6 
C      -2.27116023      -2.19313024      -0.54419955        6 
C      -2.89790891      -0.98125288      -0.26906348        6 
C      -2.16302964       0.16555735       0.04017239        6 
H       0.68245816       3.81503593      -0.51547118        1 
H       3.63916123      -0.65832056       1.15807349        1 
H      -3.98047233      -0.91720584      -0.29714522        1 
H       2.16191179       2.87540518      -0.20777793        1 
H       1.63027698       3.16684697      -1.89275292        1 
H       4.03210083       0.33787030      -0.28057598        1 
H       3.95157790      -1.44711928      -0.40574981        1 
H      -2.86240975      -3.07028162      -0.78098732        1 
H      -0.38728083      -3.23031074      -0.61825225        1 
C      -2.88280763       1.46199721       0.32919601        6 
H      -2.55023624       2.26317598      -0.33737034        1 
H      -2.69715658       1.79655085       1.35185716        1 
H      -3.95838310       1.33872421       0.19403662        1 
