27
Lattice="0.0 0.0 0.0 0.0 0.0 0.0 0.0 0.0 0.0" Properties=species:S:1:pos:R:3:Z:I:1 pbc="F F F"
C       0.75221567       0.64805069       0.12692689        6 
C      -0.61404629       0.29074092      -0.04899413        6 
C       1.85151583      -0.31535439      -0.23571067        6 
C      -0.99311365      -1.13400667       0.26418183        6 
O       3.04866005       0.08921009       0.25227654        8 
O       1.71655747      -1.32431118      -0.87933189        8 
O      -2.21839342      -1.47433602      -0.19617120        8 
O      -0.27622321      -1.92345629       0.82624785        8 
C      -2.62367017      -2.83178621       0.05442869        6 
C       4.16072704      -0.76951039      -0.05487420        6 
C       1.11300978       1.98683537       0.26028707        6 
C       0.14331567       2.98517362       0.22819805        6 
C      -1.18006809       2.64420752       0.00830106        6 
C      -1.59366703       1.30671846      -0.11094796        6 
H      -1.92265270      -3.52852121      -0.40702741        1 
H       3.98012960      -1.77490987       0.32835569        1 
H      -1.93147456       3.42451212      -0.04418304        1 
H      -2.66786766      -3.02718737       1.12707427        1 
H      -3.61102524      -2.92468080      -0.39343497        1 
H       5.01992767      -0.31820779       0.43654106        1 
H       4.31775308      -0.82227142      -1.13367776        1 
H       0.42746317       4.02471122       0.34440004        1 
H       2.15978372       2.24011812       0.35267074        1 
C      -3.08022866       1.06669175      -0.26826304        6 
H      -3.49260519       0.50489572       0.57210183        1 
H      -3.30227550       0.49141806      -1.16722496        1 
H      -3.60170987       2.02368725      -0.32819769        1 
