27
Lattice="0.0 0.0 0.0 0.0 0.0 0.0 0.0 0.0 0.0" Properties=species:S:1:pos:R:3:Z:I:1 pbc="F F F"
C       0.55020536      -0.98717455      -0.11697024        6 
C      -0.65232463      -0.25512316      -0.01761397        6 
C       1.90607877      -0.34678765      -0.24749790        6 
C      -0.53730636       1.22774196      -0.17863842        6 
O       2.30494106       0.18019786       0.92359924        8 
O       2.59021092      -0.41344971      -1.23750101        8 
O      -1.68163479       1.89622936       0.06435473        8 
O       0.48611529       1.79588326      -0.48886337        8 
C      -1.62099239       3.32580696      -0.09124798        6 
C       3.55876167       0.88553633       0.89255530        6 
C       0.54515107      -2.37855292      -0.08411871        6 
C      -0.65510529      -3.06182944       0.06662716        6 
C      -1.84252099      -2.35022401       0.17457494        6 
C      -1.87947320      -0.95147179       0.12649935        6 
H      -0.89995912       3.75461285       0.60597755        1 
H       4.36252893       0.22839620       0.55763366        1 
H      -2.77647907      -2.88948399       0.28769222        1 
H      -1.33339017       3.58646379      -1.11062271        1 
H      -2.62591036       3.68002181       0.12826276        1 
H       3.73132870       1.21439545       1.91493100        1 
H       3.48105786       1.74118975       0.21986616        1 
H      -0.66638811      -4.14556863       0.09779026        1 
H       1.48024100      -2.91740190      -0.17683424        1 
C      -3.24134602      -0.30050891       0.22131415        6 
H      -3.46204248       0.30903774      -0.65668706        1 
H      -3.31342320       0.35925060       1.08703669        1 
H      -4.01005264      -1.07037501       0.30760773        1 
