27
Lattice="0.0 0.0 0.0 0.0 0.0 0.0 0.0 0.0 0.0" Properties=species:S:1:pos:R:3:Z:I:1 pbc="F F F"
C       0.13681343      -1.11186367       0.06169954        6 
C      -0.74403919      -0.02873323       0.15128087        6 
C       1.60851298      -0.95318972       0.32173051        6 
C      -0.20794959       1.35161015       0.39996850        6 
O       2.27669878      -0.69790329      -0.82148973        8 
O       2.12950434      -1.04247857       1.40297098        8 
O      -0.28919578       2.10474106      -0.71596580        8 
O       0.22030009       1.75506297       1.45193019        8 
C       0.16350000       3.46726920      -0.59081579        6 
C       3.70462881      -0.53861785      -0.69363271        6 
C      -0.35256374      -2.39209469      -0.20277277        6 
C      -1.71805872      -2.58853803      -0.37227029        6 
C      -2.59284878      -1.51012820      -0.27453076        6 
C      -2.12605433      -0.21775546      -0.02405338        6 
H      -0.43114886       3.99835099       0.15417829        1 
H       3.93485362       0.28426287      -0.01568160        1 
H      -3.65870595      -1.66964562      -0.39841958        1 
H       1.21372906       3.49303891      -0.29693373        1 
H       0.02918911       3.90725847      -1.57618302        1 
H       4.06115910      -0.32416567      -1.69841521        1 
H       4.15522115      -1.45610981      -0.31214456        1 
H      -2.10202647      -3.58216246      -0.57347070        1 
H       0.33423821      -3.22778331      -0.26748383        1 
C      -3.09291191       0.93950714       0.05019315        6 
H      -3.00165316       1.57907647      -0.83208433        1 
H      -2.90765883       1.56325882       0.92898272        1 
H      -4.12161547       0.57974679       0.10521937        1 
