27
Lattice="0.0 0.0 0.0 0.0 0.0 0.0 0.0 0.0 0.0" Properties=species:S:1:pos:R:3:Z:I:1 pbc="F F F"
C       0.52190980      -0.92511823      -0.24708776        6 
C      -0.66219054      -0.25578430       0.08714989        6 
C       1.81580176      -0.17340671      -0.38169619        6 
C      -0.61021556       1.23526794       0.23309072        6 
O       2.57505744      -0.32849470       0.71245071        8 
O       2.15507811       0.43253363      -1.36911189        8 
O      -1.45978399       1.84345953      -0.61428350        8 
O       0.09869721       1.82565599       1.01296396        8 
C      -1.48392619       3.28334252      -0.56113270        6 
C       3.84158578       0.36002764       0.70507616        6 
C       0.52086315      -2.30609771      -0.43651566        6 
C      -0.66601067      -3.01701905      -0.29568696        6 
C      -1.83951780      -2.35277432       0.04892851        6 
C      -1.86659383      -0.96772429       0.23411435        6 
H      -1.74512305       3.62367572       0.44196547        1 
H       4.46225791       0.00836426      -0.12051218        1 
H      -2.75683195      -2.91768732       0.17773171        1 
H      -0.50838291       3.68575572      -0.83701498        1 
H      -2.24089031       3.58485287      -1.28139472        1 
H       4.30153677       0.12449736       1.66172973        1 
H       3.68141769       1.43446935       0.60859405        1 
H      -0.67536682      -4.09109216      -0.44261121        1 
H       1.44221530      -2.81729080      -0.68851093        1 
C      -3.16478151      -0.28559259       0.59699188        6 
H      -3.58506494       0.23740958      -0.26576978        1 
H      -3.02599233       0.45417194       1.38915287        1 
H      -3.89644489      -1.01726189       0.94430365        1 
