27
Lattice="0.0 0.0 0.0 0.0 0.0 0.0 0.0 0.0 0.0" Properties=species:S:1:pos:R:3:Z:I:1 pbc="F F F"
C       0.24554968      -1.17511914       0.05023678        6 
C      -0.68695901      -0.11923992       0.03936884        6 
C       1.72687475      -0.95970815       0.13370454        6 
C      -0.17944142       1.25884745       0.33221614        6 
O       2.15025504      -0.08215635      -0.79563958        8 
O       2.45745775      -1.55847019       0.88384141        8 
O      -0.82221058       2.21346651      -0.36818517        8 
O       0.72242829       1.49807405       1.10058005        8 
C      -0.39179191       3.56590506      -0.12703179        6 
C       3.54785663       0.25626050      -0.74526435        6 
C      -0.17938034      -2.49719677      -0.06022287        6 
C      -1.53337807      -2.77958597      -0.19899169        6 
C      -2.45635379      -1.74108557      -0.20958488        6 
C      -2.06440323      -0.40295911      -0.08215748        6 
H      -0.54232526       3.83335118       0.92003509        1 
H       3.77315504       0.75714193       0.19768368        1 
H      -3.51336607      -1.96697274      -0.29969444        1 
H       0.66384936       3.67756080      -0.37742191        1 
H      -1.00890102       4.18458071      -0.77467731        1 
H       3.71401429       0.92620061      -1.58586712        1 
H       4.16282915      -0.63981887      -0.83812745        1 
H      -1.86971502      -3.80620981      -0.28981602        1 
H       0.55611180      -3.29174110      -0.03906473        1 
C      -3.14369310       0.65550174      -0.04187437        6 
H      -3.12877050       1.27141227      -0.94292732        1 
H      -3.02010797       1.32995050       0.80781026        1 
H      -4.12494189       0.18471328       0.03918467        1 
