27
Lattice="0.0 0.0 0.0 0.0 0.0 0.0 0.0 0.0 0.0" Properties=species:S:1:pos:R:3:Z:I:1 pbc="F F F"
C      -0.17067166      -1.01795042       0.21935434        6 
C      -0.81575486       0.21128054      -0.04900921        6 
C       1.31384663      -1.22050176       0.14742443        6 
C      -0.06726657       1.50212947       0.05737585        6 
O       1.82807582      -0.66016776      -0.96671686        8 
O       1.94833496      -1.91901542       0.90026077        8 
O       1.08872746       1.34974921       0.74066185        8 
O      -0.47314001       2.58729844      -0.29165316        8 
C       1.88002536       2.53291754       0.92860995        6 
C       3.24347243      -0.82379225      -1.15384580        6 
C      -0.90990776      -2.18522206       0.39012252        6 
C      -2.29456582      -2.15512530       0.25972314        6 
C      -2.92940538      -0.96157063      -0.05279571        6 
C      -2.22181770       0.23980477      -0.19847635        6 
H       2.19945031       2.93473638      -0.03476317        1 
H       3.79073908      -0.35292054      -0.33491863        1 
H      -4.00734800      -0.94520367      -0.17017043        1 
H       1.30973136       3.29362311       1.46341733        1 
H       2.73838142       2.21355603       1.51554050        1 
H       3.46884465      -0.33270149      -2.09790390        1 
H       3.50559899      -1.88192900      -1.19787874        1 
H      -2.87360916      -3.06296952       0.38684257        1 
H      -0.38904971      -3.11126442       0.59899974        1 
C      -3.01308097       1.49376368      -0.48444988        6 
H      -2.69394512       1.96333703      -1.41566418        1 
H      -2.87788504       2.24407720       0.29715004        1 
H      -4.07519365       1.25200524      -0.55572217        1 
