27
Lattice="0.0 0.0 0.0 0.0 0.0 0.0 0.0 0.0 0.0" Properties=species:S:1:pos:R:3:Z:I:1 pbc="F F F"
C      -0.01894208      -0.94994211       0.14180235        6 
C      -0.90647642       0.13116553      -0.00216887        6 
C       1.45549825      -0.76233575       0.36828201        6 
C      -0.39744634       1.53315175       0.07871505        6 
O       2.15698073      -1.09383472      -0.72969415        8 
O       1.95275926      -0.46242204       1.42591970        8 
O       0.83092337       1.64353120      -0.46996819        8 
O      -0.98838370       2.46460863       0.57133155        8 
C       1.49133732       2.91071005      -0.30535918        6 
C       3.58915808      -1.01283290      -0.60949711        6 
C      -0.49154259      -2.26072196       0.11156034        6 
C      -1.85036440      -2.50103549      -0.05619742        6 
C      -2.73050976      -1.43420882      -0.20045241        6 
C      -2.28852517      -0.10833569      -0.16703823        6 
H       0.89226752       3.71313898      -0.73709065        1 
H       3.89244849       0.01257745      -0.39219848        1 
H      -3.78793525      -1.62829611      -0.34348711        1 
H       1.65915556       3.11031878       0.75412996        1 
H       2.43828043       2.81231961      -0.83132022        1 
H       3.97802972      -1.33105491      -1.57404383        1 
H       3.94459964      -1.66891140       0.18652639        1 
H      -2.22278607      -3.51907778      -0.07931596        1 
H       0.20294417      -3.08519641       0.21895338        1 
C      -3.30167992       0.99995468      -0.32215069        6 
H      -2.99016128       1.73952635      -1.06270945        1 
H      -3.43851747       1.53969995       0.61708492        1 
H      -4.26348974       0.58670692      -0.63150291        1 
