27
Lattice="0.0 0.0 0.0 0.0 0.0 0.0 0.0 0.0 0.0" Properties=species:S:1:pos:R:3:Z:I:1 pbc="F F F"
C       0.24175059      -0.90459404       0.03446512        6 
C      -0.88321039      -0.05895565       0.06266637        6 
C       1.60998760      -0.35956277       0.29166907        6 
C      -0.72139977       1.42987440       0.12751232        6 
O       2.55598602      -1.05685051      -0.37112362        8 
O       1.85945165       0.55634340       1.03948749        8 
O       0.13801620       1.86160347      -0.81598105        8 
O      -1.33222175       2.16120840       0.86795036        8 
C       0.47679876       3.25897961      -0.76683030        6 
C       3.91740278      -0.66232367      -0.12255891        6 
C       0.07816031      -2.28350536      -0.11312892        6 
C      -1.19913508      -2.82225066      -0.21801106        6 
C      -2.30877165      -1.98588698      -0.17819610        6 
C      -2.17862799      -0.59919480      -0.03850085        6 
H      -0.42049094       3.87537922      -0.83310056        1 
H       4.06918633       0.37981093      -0.40637153        1 
H      -3.30316252      -2.41098404      -0.26339027        1 
H       1.00279127       3.47612616       0.16434889        1 
H       1.12583576       3.42949352      -1.62286459        1 
H       4.52545064      -1.32054245      -0.73911894        1 
H       4.16392832      -0.78635842       0.93324349        1 
H      -1.32983595      -3.89279645      -0.32823072        1 
H       0.95032505      -2.92300534      -0.13096050        1 
C      -3.41990229       0.26086162      -0.01802447        6 
H      -3.35468904       1.08708686      -0.73017350        1 
H      -3.56981205       0.70786951       0.96676958        1 
H      -4.29851066      -0.33619138      -0.26837153        1 
