27
Lattice="0.0 0.0 0.0 0.0 0.0 0.0 0.0 0.0 0.0" Properties=species:S:1:pos:R:3:Z:I:1 pbc="F F F"
C      -0.12795830      -1.14159403      -0.21963935        6 
C      -0.74556110       0.08904784       0.07242373        6 
C       1.32912004      -1.41882138      -0.00207424        6 
C       0.02368384       1.37195210       0.22401643        6 
O       2.10947011      -0.32576647      -0.08115780        8 
O       1.75732718      -2.51036087       0.29596524        8 
O       0.52311781       1.76551008      -0.96069349        8 
O       0.06344526       2.04203730       1.22760591        8 
C       1.28770611       2.98292336      -0.94875593        6 
C       3.49666039      -0.51879875       0.25084216        6 
C      -0.91836624      -2.26607911      -0.48371290        6 
C      -2.30136861      -2.16510360      -0.49981319        6 
C      -2.90635073      -0.94968762      -0.19374560        6 
C      -2.15019463       0.18825825       0.09830053        6 
H       0.68138887       3.81690420      -0.59244162        1 
H       3.59532492      -0.86791340       1.27967942        1 
H      -3.98859280      -0.87454302      -0.18597401        1 
H       2.16050421       2.87109728      -0.30291800        1 
H       1.59371685       3.14193018      -1.98027082        1 
H       3.96030372       0.45762071       0.13056695        1 
H       3.95112806      -1.24654835      -0.42233573        1 
H      -2.90879382      -3.03411663      -0.72534488        1 
H      -0.42804398      -3.21639350      -0.65053010        1 
C      -2.84776664       1.49146814       0.41070623        6 
H      -2.55755202       2.27867311      -0.29177477        1 
H      -2.59549898       1.84479897       1.41234306        1 
H      -3.93003377       1.36925720       0.34731021        1 
