27
Lattice="0.0 0.0 0.0 0.0 0.0 0.0 0.0 0.0 0.0" Properties=species:S:1:pos:R:3:Z:I:1 pbc="F F F"
C       0.10103170      -0.91265665      -0.04052588        6 
C      -0.91261387       0.06750814      -0.04065483        6 
C       1.53004243      -0.57849338      -0.35124612        6 
C      -0.56362684       1.52077685      -0.02423601        6 
O       2.36908098      -1.12010051       0.55278622        8 
O       1.89365827       0.02017559      -1.33384996        8 
O       0.62161643       1.73380295       0.58516105        8 
O      -1.27039286       2.41822287      -0.41986130        8 
C       1.11120215       3.08500029       0.56675107        6 
C       3.77330932      -0.94732032       0.28616963        6 
C      -0.22115508      -2.26297808       0.08212064        6 
C      -1.55348969      -2.65061078       0.17886303        6 
C      -2.55535385      -1.68956024       0.15794229        6 
C      -2.26630794      -0.32272358       0.05660857        6 
H       1.29824671       3.40079367      -0.46096824        1 
H       4.03844664      -1.40272298      -0.66937715        1 
H      -3.59239339      -1.99775488       0.23385300        1 
H       0.39047391       3.75998099       1.02984164        1 
H       2.03875055       3.06360907       1.13439767        1 
H       4.28628859      -1.44506607       1.10597441        1 
H       4.02763532       0.11324332       0.26026628        1 
H      -1.80935564      -3.70054489       0.26688521        1 
H       0.56906806      -3.00312159       0.08343891        1 
C      -3.41684633       0.65532205       0.07988615        6 
H      -3.51250900       1.17602604      -0.87453030        1 
H      -3.27914998       1.42852799       0.83825637        1 
H      -4.34944640       0.12761584       0.28784553        1 
