27
Lattice="0.0 0.0 0.0 0.0 0.0 0.0 0.0 0.0 0.0" Properties=species:S:1:pos:R:3:Z:I:1 pbc="F F F"
C       0.38630774      -0.91259309      -0.14666642        6 
C      -0.80171502      -0.17205685      -0.05309865        6 
C       1.69745183      -0.20501491      -0.23793157        6 
C      -0.80202011       1.31832857      -0.26228811        6 
O       2.67254454      -0.88567571       0.40179491        8 
O       1.89322275       0.82252833      -0.84331887        8 
O      -0.46945062       1.97179947       0.86608296        8 
O      -1.06877468       1.85215507      -1.30741943        8 
C      -0.33066925       3.40123293       0.74020084        6 
C       3.99346440      -0.32215181       0.31184608        6 
C       0.34450204      -2.30818477      -0.05682979        6 
C      -0.87441720      -2.95807787       0.08552439        6 
C      -2.05031917      -2.21757570       0.17414954        6 
C      -2.03730645      -0.82276232       0.09928089        6 
H       0.44786236       3.63258147       0.01216426        1 
H       4.31733368      -0.27471636      -0.72918628        1 
H      -2.99896476      -2.72909690       0.29971026        1 
H      -1.27248352       3.84992034       0.42107160        1 
H      -0.05237867       3.75290638       1.73102174        1 
H       4.63183423      -0.99188821       0.88363110        1 
H       4.00906579       0.68199039       0.73790224        1 
H      -0.90979701      -4.04010945       0.14022081        1 
H       1.26727515      -2.87092748      -0.10182142        1 
C      -3.32716913      -0.04061796       0.16447189        6 
H      -3.56137724       0.40421283      -0.80682915        1 
H      -3.26498997       0.77572199       0.88936989        1 
H      -4.15896105      -0.68532628       0.45307494        1 
