27
Lattice="0.0 0.0 0.0 0.0 0.0 0.0 0.0 0.0 0.0" Properties=species:S:1:pos:R:3:Z:I:1 pbc="F F F"
C      -0.18034726      -1.13285430       0.14593620        6 
C      -0.76421926       0.12721097      -0.08878052        6 
C       1.28393853      -1.42176398       0.02907347        6 
C       0.05090996       1.38643879      -0.16990349        6 
O       2.00206110      -0.35547322      -0.37041715        8 
O       1.77056875      -2.51860341       0.18528989        8 
O       0.63583351       1.64796526       1.01459905        8 
O       0.09444115       2.12639988      -1.12172280        8 
C       1.47866947       2.81223005       1.05409990        6 
C       3.40357540      -0.58222683      -0.60033908        6 
C      -0.99966494      -2.25081457       0.33449257        6 
C      -2.38071600      -2.12272343       0.29740512        6 
C      -2.95103822      -0.87940511       0.04326208        6 
C      -2.16364703       0.25953733      -0.15092051        6 
H       2.31118612       2.69556462       0.35766397        1 
H       3.89680595      -0.88044051       0.32589589        1 
H      -4.03071256      -0.78181541       0.00090532        1 
H       0.91318573       3.70722212       0.79113556        1 
H       1.84163123       2.87239456       2.07763729        1 
H       3.79329316       0.36806423      -0.95794520        1 
H       3.54326597      -1.36202000      -1.35003427        1 
H      -3.01226034      -2.99063655       0.44889412        1 
H      -0.53006530      -3.21362004       0.48847521        1 
C      -2.82713172       1.59320723      -0.40333069        6 
H      -2.55727663       1.98732987      -1.38494206        1 
H      -2.52316560       2.33936104       0.33676302        1 
H      -3.91249947       1.49461667      -0.35290854        1 
