27
Lattice="0.0 0.0 0.0 0.0 0.0 0.0 0.0 0.0 0.0" Properties=species:S:1:pos:R:3:Z:I:1 pbc="F F F"
C      -0.05966065      -0.95886208      -0.16029324        6 
C      -0.88077653       0.17305993       0.02086466        6 
C       1.43690578      -0.91342315      -0.31925629        6 
C      -0.31203291       1.55303593      -0.04536541        6 
O       2.04597413      -1.00287085       0.87625343        8 
O       2.01357135      -0.93752087      -1.37806374        8 
O       1.02931706       1.55970477       0.09658895        8 
O      -0.94925958       2.56583270      -0.22503436        8 
C       1.68406022       2.82810532      -0.07133471        6 
C       3.48420935      -1.02236195       0.84647947        6 
C      -0.61368672      -2.23717670      -0.20044476        6 
C      -1.98289400      -2.40701035      -0.03819923        6 
C      -2.79463531      -1.29867078       0.16661321        6 
C      -2.27738713       0.00028147       0.18965700        6 
H       1.47325718       3.23550616      -1.06085803        1 
H       3.84483774      -1.87971860       0.27600016        1 
H      -3.86111492      -1.43558304       0.30729003        1 
H       1.34825898       3.53367729       0.68987996        1 
H       2.74599922       2.62075503       0.03928059        1 
H       3.79415339      -1.09412021       1.88646711        1 
H       3.86513329      -0.10537054       0.39373097        1 
H      -2.41453142      -3.40130541      -0.06513995        1 
H       0.03049400      -3.09483118      -0.35392870        1 
C      -3.24605811       1.13869687       0.40333365        6 
H      -3.34589401       1.74940727      -0.49601350        1 
H      -2.91803738       1.81377479       1.19537950        1 
H      -4.22789815       0.74076657       0.66725123        1 
