27
Lattice="0.0 0.0 0.0 0.0 0.0 0.0 0.0 0.0 0.0" Properties=species:S:1:pos:R:3:Z:I:1 pbc="F F F"
C       0.65218161      -0.80739659      -0.12458496        6 
C      -0.65295935      -0.31298266       0.03881095        6 
C       1.80756961       0.12956932      -0.30511163        6 
C      -0.82204593       1.15882198       0.26573687        6 
O       2.83072413      -0.18791327       0.50840754        8 
O       1.84556434       1.01099550      -1.12883771        8 
O      -1.82438151       1.67905845      -0.46570535        8 
O      -0.13339024       1.80790996       1.01599364        8 
C      -2.04297199       3.09504435      -0.31541557        6 
C       4.00975362       0.62955671       0.37765925        6 
C       0.88068074      -2.17894175      -0.22096783        6 
C      -0.19291206      -3.06194445      -0.17071480        6 
C      -1.48383538      -2.57378338      -0.00547166        6 
C      -1.74254203      -1.20276516       0.10682919        6 
H      -2.30694463       3.33226309       0.71640850        1 
H       4.41776396       0.55136222      -0.63142578        1 
H      -2.31509431      -3.26834970       0.05104032        1 
H      -1.14387790       3.64569379      -0.59399163        1 
H      -2.86458436       3.33236533      -0.98738067        1 
H       4.71322380       0.23954165       1.10966193        1 
H       3.76945078       1.67196782       0.59004660        1 
H      -0.02324953      -4.12959145      -0.25218745        1 
H       1.89220745      -2.54519107      -0.34159733        1 
C      -3.16612085      -0.74391563       0.32547386        6 
H      -3.55556159      -0.23495553      -0.55866838        1 
H      -3.24289880      -0.04107724       1.15859298        1 
H      -3.80948228      -1.59776522       0.54510077        1 
