27
Lattice="0.0 0.0 0.0 0.0 0.0 0.0 0.0 0.0 0.0" Properties=species:S:1:pos:R:3:Z:I:1 pbc="F F F"
C      -0.22028723      -1.03535117       0.10615699        6 
C      -0.86849441       0.20866388       0.01271204        6 
C       1.26873614      -1.16858701       0.25219915        6 
C      -0.06651223       1.46614147      -0.09217550        6 
O       1.89893431      -0.87591440      -0.90333249        8 
O       1.82919026      -1.50734081       1.26299535        8 
O       0.98018185       1.45350995       0.75747605        8 
O      -0.29871935       2.37918790      -0.84839816        8 
C       1.90183250       2.55256741       0.65397730        6 
C       3.33693779      -0.94068909      -0.86865731        6 
C      -0.96265094      -2.21556816       0.13915701        6 
C      -2.34907819      -2.16311666       0.06159978        6 
C      -2.99179552      -0.93301622      -0.03141571        6 
C      -2.27587387       0.26684381      -0.06697872        6 
H       2.32688327       2.59433263      -0.35039788        1 
H       3.72932466      -0.23226246      -0.13710793        1 
H      -4.07480978      -0.89659599      -0.07715145        1 
H       1.39854658       3.49544432       0.87164510        1 
H       2.67357845       2.34977798       1.39308143        1 
H       3.66273165      -0.67875563      -1.87277662        1 
H       3.66771301      -1.94684481      -0.60724487        1 
H      -2.92922847      -3.07874151       0.08258971        1 
H      -0.45184076      -3.16677572       0.22890691        1 
C      -3.03160384       1.56928469      -0.17563845        6 
H      -2.88803743       2.02404893      -1.15785966        1 
H      -2.69287863       2.30043443       0.56186113        1 
H      -4.09863641       1.39830026      -0.02192840        1 
