27
Lattice="0.0 0.0 0.0 0.0 0.0 0.0 0.0 0.0 0.0" Properties=species:S:1:pos:R:3:Z:I:1 pbc="F F F"
C       0.46141834      -0.89994100       0.19140561        6 
C      -0.74792616      -0.19793318       0.07711420        6 
C       1.75624499      -0.15632769       0.25810840        6 
C      -0.81452827       1.28783452       0.31302951        6 
O       2.71148790      -0.77735233      -0.46933422        8 
O       1.96098161       0.84246860       0.90501224        8 
O      -0.73924343       1.97036162      -0.84637832        8 
O      -0.92333469       1.79807364       1.39651023        8 
C      -0.74957628       3.40779281      -0.72756390        6 
C       4.02100356      -0.18244141      -0.41957991        6 
C       0.46500107      -2.29597159       0.09744446        6 
C      -0.72969115      -2.98582883      -0.05924245        6 
C      -1.92655767      -2.28352214      -0.17348534        6 
C      -1.95792097      -0.88895399      -0.10672721        6 
H      -1.67560430       3.74434425      -0.25895672        1 
H       3.98790735       0.84216941      -0.79260232        1 
H      -2.85639645      -2.82470283      -0.31418819        1 
H       0.10010529       3.73825743      -0.12892750        1 
H      -0.67540908       3.78213605      -1.74599043        1 
H       4.64431735      -0.80399509      -1.05854800        1 
H       4.39894178      -0.17896143       0.60414493        1 
H      -0.72910585      -4.06863632      -0.10977062        1 
H       1.40549275      -2.82847782       0.14637079        1 
C      -3.26881922      -0.14700853      -0.21578049        6 
H      -3.24900920       0.57601063      -1.03595281        1 
H      -3.48614528       0.40413913       0.70384437        1 
H      -4.09287024      -0.83900958      -0.39669013        1 
