27
Lattice="0.0 0.0 0.0 0.0 0.0 0.0 0.0 0.0 0.0" Properties=species:S:1:pos:R:3:Z:I:1 pbc="F F F"
C       0.51610213      -1.01558854       0.12469980        6 
C      -0.65520971      -0.23451391       0.02281813        6 
C       1.89869424      -0.43257498       0.23434868        6 
C      -0.48681487       1.23939692       0.21695446        6 
O       2.26314559       0.16073033      -0.91658598        8 
O       2.62675192      -0.59370810       1.18144831        8 
O      -1.58258111       1.96004453      -0.09218334        8 
O       0.53838736       1.75759782       0.59954957        8 
C      -1.46940891       3.38391439       0.08538755        6 
C       3.54449074       0.81460294      -0.90117914        6 
C       0.45481447      -2.40527283       0.08273799        6 
C      -0.77139929      -3.03834162      -0.08040204        6 
C      -1.92818048      -2.27837399      -0.18944306        6 
C      -1.90855913      -0.87938835      -0.12945684        6 
H      -1.23800971       3.62147713       1.12454171        1 
H       3.53735397       1.61893570      -0.16382138        1 
H      -2.88292067      -2.77825490      -0.30967715        1 
H      -0.68540146       3.78625603      -0.55753119        1 
H      -2.44081147       3.78540535      -0.19497990        1 
H       3.67784626       1.21355945      -1.90431880        1 
H       4.33639342       0.10396704      -0.66023943        1 
H      -0.82652765      -4.12044553      -0.11998161        1 
H       1.36765420      -2.98104625       0.17425798        1 
C      -3.24268440      -0.17190023      -0.21539223        6 
H      -3.29778665       0.47867510      -1.08949043        1 
H      -3.42530494       0.45860736       0.65649084        1 
H      -4.04491141      -0.90879568      -0.28082058        1 
