27
Lattice="0.0 0.0 0.0 0.0 0.0 0.0 0.0 0.0 0.0" Properties=species:S:1:pos:R:3:Z:I:1 pbc="F F F"
C      -0.20312814      -1.19293976      -0.02850871        6 
C      -0.77445883       0.08707551      -0.09502784        6 
C       1.26849640      -1.43037616       0.07987857        6 
C       0.06626996       1.32057561      -0.28124881        6 
O       1.98478100      -0.53438388      -0.62363457        8 
O       1.76461875      -2.31298562       0.74019146        8 
O       0.55059103       1.75955877       0.89711379        8 
O       0.27595366       1.85352313      -1.34036631        8 
C       1.40441722       2.91830553       0.83251358        6 
C       3.41575092      -0.64691260      -0.52766009        6 
C      -1.02889215      -2.31776792       0.07315430        6 
C      -2.40863072      -2.17314734       0.06773614        6 
C      -2.97068756      -0.90063575      -0.00433402        6 
C      -2.17202703       0.24197675      -0.08592959        6 
H       2.28484077       2.70428808       0.22437763        1 
H       3.73584258      -0.54442193       0.51039021        1 
H      -4.04971809      -0.78830735       0.00412746        1 
H       0.86803071       3.76489488       0.40170203        1 
H       1.68879014       3.12583357       1.86150673        1 
H       3.80857445       0.16279986      -1.13829259        1 
H       3.74600504      -1.61302089      -0.91182997        1 
H      -3.04763701      -3.04644915       0.13107833        1 
H      -0.57072678      -3.29456875       0.16265717        1 
C      -2.80164465       1.61189209      -0.17098428        6 
H      -2.57873466       2.08619952      -1.13042086        1 
H      -2.42496660       2.27166921       0.61611552        1 
H      -3.88565546       1.54831495      -0.06542105        1 
