27
Lattice="0.0 0.0 0.0 0.0 0.0 0.0 0.0 0.0 0.0" Properties=species:S:1:pos:R:3:Z:I:1 pbc="F F F"
C      -0.13460545      -0.98822479       0.22314546        6 
C      -0.83959799       0.21234042      -0.01995328        6 
C       1.36358022      -1.11611594       0.23404943        6 
C      -0.15504599       1.53855662       0.07728440        6 
O       1.86862136      -0.87019877      -0.99030531        8 
O       2.01277239      -1.52773575       1.16339223        8 
O       1.15332098       1.41874201       0.38433355        8 
O      -0.69643100       2.61800502      -0.00906797        8 
C       1.88005963       2.64202769       0.58187661        6 
C       3.29531695      -0.99566692      -1.11515582        6 
C      -0.81331369      -2.19733952       0.35386773        6 
C      -2.19428119      -2.23924941       0.20069126        6 
C      -2.88887297      -1.07297047      -0.08750312        6 
C      -2.24655084       0.16732964      -0.18695462        6 
H       1.84135304       3.25808239      -0.31730231        1 
H       3.79762012      -0.31444295      -0.42626626        1 
H      -3.96370080      -1.11288272      -0.22470539        1 
H       1.46111430       3.20050916       1.42012601        1 
H       2.90115057       2.33637866       0.79882235        1 
H       3.51953690      -0.73380707      -2.14678533        1 
H       3.61078306      -2.01814305      -0.90100689        1 
H      -2.72444126      -3.18044298       0.29422670        1 
H      -0.25188087      -3.10119207       0.55659891        1 
C      -3.10682605       1.37733946      -0.46383453        6 
H      -2.75924380       1.92777880      -1.33914331        1 
H      -3.08575574       2.08492540       0.36682910        1 
H      -4.13863131       1.06306281      -0.63197468        1 
