27
Lattice="0.0 0.0 0.0 0.0 0.0 0.0 0.0 0.0 0.0" Properties=species:S:1:pos:R:3:Z:I:1 pbc="F F F"
C       0.57692117      -0.91461515       0.21977866        6 
C      -0.64541972      -0.27170941      -0.04043618        6 
C       1.85955189      -0.14616636       0.38940981        6 
C      -0.62575848       1.22291141      -0.10515854        6 
O       2.55983349      -0.12675297      -0.75358147        8 
O       2.24709370       0.30323473       1.43986031        8 
O      -1.72850289       1.77769525       0.43321647        8 
O       0.28425679       1.87470486      -0.56316318        8 
C      -1.78183762       3.21683899       0.42037737        6 
C       3.79260485       0.61763069      -0.72203204        6 
C       0.63663300      -2.30090427       0.33953113        6 
C      -0.52058081      -3.05565666       0.18467043        6 
C      -1.72653245      -2.42536551      -0.10065819        6 
C      -1.82164830      -1.03434544      -0.20984874        6 
H      -0.94010239       3.63189846       0.97590471        1 
H       3.58393066       1.66721942      -0.51068575        1 
H      -2.62058957      -3.02245371      -0.24508983        1 
H      -1.75621744       3.58922751      -0.60486531        1 
H      -2.72376309       3.47330680       0.89994333        1 
H       4.22290624       0.50417935      -1.71430767        1 
H       4.46343135       0.21742716       0.03965962        1 
H      -0.48080929      -4.13552051       0.27333907        1 
H       1.58422779      -2.78322956       0.54745238        1 
C      -3.17015747      -0.43247715      -0.53479093        6 
H      -3.09977677       0.34101000      -1.30151979        1 
H      -3.61835107       0.03126461       0.34669955        1 
H      -3.84632755      -1.20962655      -0.89593696        1 
