27
Lattice="0.0 0.0 0.0 0.0 0.0 0.0 0.0 0.0 0.0" Properties=species:S:1:pos:R:3:Z:I:1 pbc="F F F"
C      -0.20026852      -1.06373119      -0.17216292        6 
C      -0.80031462       0.18976205       0.07334885        6 
C       1.27285832      -1.31535471      -0.07731888        6 
C       0.01045698       1.44642665       0.02928254        6 
O       1.86682073      -0.50479188       0.82271035        8 
O       1.84802812      -2.21756613      -0.63911565        8 
O       0.93589512       1.38529376      -0.95378676        8 
O      -0.18957403       2.43966506       0.68722044        8 
C       1.80893721       2.51965596      -1.07044053        6 
C       3.27903200      -0.69832409       1.00772451        6 
C      -0.99013244      -2.19971638      -0.34404903        6 
C      -2.37429269      -2.10366638      -0.25487684        6 
C      -2.96333569      -0.87631796       0.02077637        6 
C      -2.20228932       0.28919492       0.18091609        6 
H       1.23616909       3.42967865      -1.25425099        1 
H       3.48697458      -1.72461054       1.31308449        1 
H      -4.04287701      -0.80620472       0.09995761        1 
H       2.39343199       2.64207081      -0.15643294        1 
H       2.45903565       2.29832822      -1.91409043        1 
H       3.56649480       0.00183765       1.78885853        1 
H       3.81541179      -0.48481733       0.08127866        1 
H      -2.99078688      -2.98568216      -0.38659883        1 
H      -0.50457618      -3.15051928      -0.52331692        1 
C      -2.92109557       1.59344015       0.43379706        6 
H      -2.64217880       2.36012612      -0.29262700        1 
H      -2.67429718       1.99450761       1.41801851        1 
H      -4.00040292       1.44223700       0.37559175        1 
