27
Lattice="0.0 0.0 0.0 0.0 0.0 0.0 0.0 0.0 0.0" Properties=species:S:1:pos:R:3:Z:I:1 pbc="F F F"
C       0.15834478      -1.19408375      -0.16197591        6 
C      -0.66137548      -0.04845671      -0.01920620        6 
C       1.65720691      -1.19575441      -0.03574250        6 
C      -0.11857383       1.30161816      -0.39586110        6 
O       2.15923235      -0.01439683       0.35630861        8 
O       2.33261824      -2.19683981      -0.12432818        8 
O      -0.53979839       2.27822310       0.43477465        8 
O       0.62786987       1.49747947      -1.32213829        8 
C      -0.07048186       3.60357972       0.12952894        6 
C       3.58196680       0.03403888       0.55327507        6 
C      -0.41548599      -2.46612984      -0.14344521        6 
C      -1.78804786      -2.62144038       0.00256609        6 
C      -2.58869865      -1.50023615       0.16649959        6 
C      -2.05475710      -0.20497909       0.14260870        6 
H       1.01859650       3.64110520       0.18301276        1 
H       3.88272946      -0.66082075       1.33911046        1 
H      -3.65946869      -1.61964189       0.29211171        1 
H      -0.38964838       3.90269354      -0.87024850        1 
H      -0.51444667       4.24893328       0.88428031        1 
H       3.79703496       1.06022359       0.84230987        1 
H       4.10121697      -0.22070690      -0.37154883        1 
H      -2.22766924      -3.61233810       0.00741615        1 
H       0.24000465      -3.32422454      -0.21421537        1 
C      -3.01873578       0.95773694       0.23897922        6 
H      -2.90976846       1.64469885      -0.60356094        1 
H      -2.85499599       1.53869854       1.14788240        1 
H      -4.04635024       0.59055733       0.24166333        1 
