27
Lattice="0.0 0.0 0.0 0.0 0.0 0.0 0.0 0.0 0.0" Properties=species:S:1:pos:R:3:Z:I:1 pbc="F F F"
C      -0.16659833      -0.99380594      -0.15771120        6 
C      -0.86019410       0.22487399       0.00223137        6 
C       1.32975620      -1.11634706      -0.24423342        6 
C      -0.13612365       1.53131891      -0.02594455        6 
O       1.89882235      -0.91338010       0.96062075        8 
O       1.93375327      -1.44943135      -1.23208775        8 
O       1.11642559       1.39950426      -0.51043504        8 
O      -0.59994058       2.60420908       0.28688381        8 
C       1.90924034       2.59451963      -0.57982267        6 
C       3.33294294      -1.01651326       0.99801617        6 
C      -0.85834707      -2.20159390      -0.22121222        6 
C      -2.24288830      -2.21608997      -0.10363860        6 
C      -2.93130131      -1.02241556       0.06682467        6 
C      -2.27262684       0.21124875       0.11695149        6 
H       1.43277364       3.33014465      -1.22923736        1 
H       3.65397468      -2.01449281       0.69556423        1 
H      -4.01207383      -1.03789399       0.15378395        1 
H       2.04021998       3.02318530       0.41501179        1 
H       2.86442681       2.28051164      -0.99494038        1 
H       3.61107883      -0.82131678       2.03132044        1 
H       3.78274022      -0.27816802       0.33188688        1 
H      -2.78341861      -3.15497736      -0.14689351        1 
H      -0.30752124      -3.12437903      -0.35877285        1 
C      -3.11774261       1.45330406       0.27161322        6 
H      -2.93906008       2.16824506      -0.53330483        1 
H      -2.89341418       1.97731172       1.20195368        1 
H      -4.17501593       1.18123574       0.26721041        1 
