27
Lattice="0.0 0.0 0.0 0.0 0.0 0.0 0.0 0.0 0.0" Properties=species:S:1:pos:R:3:Z:I:1 pbc="F F F"
C       0.35225091      -0.91049394      -0.10020077        6 
C      -0.82953405      -0.15428950      -0.05136037        6 
C       1.67091690      -0.22460493      -0.23069013        6 
C      -0.79917495       1.33877120      -0.22830620        6 
O       2.66080081      -0.92974964       0.35616947        8 
O       1.85734242       0.81123384      -0.82584659        8 
O      -0.32632861       1.95007896       0.87251851        8 
O      -1.17015260       1.91026105      -1.22153259        8 
C      -0.12285980       3.37212089       0.75778589        6 
C       3.98636324      -0.38786565       0.21582539        6 
C       0.29213935      -2.30404204       0.00663492        6 
C      -0.93752280      -2.93718968       0.13221630        6 
C      -2.10637766      -2.18205218       0.17523587        6 
C      -2.07655112      -0.78839680       0.07831588        6 
H       0.61834024       3.57340304      -0.01689887        1 
H       4.25822247      -0.31417741      -0.83835390        1 
H      -3.06359803      -2.68103542       0.28466810        1 
H      -1.05820300       3.87480515       0.50831547        1 
H       0.23923525       3.69182733       1.73225346        1 
H       4.63937665      -1.08662616       0.73385596        1 
H       4.04364683       0.60168004       0.67142696        1 
H      -0.98727959      -4.01765971       0.20409940        1 
H       1.20855752      -2.87816672      -0.01425204        1 
C      -3.36151542       0.00411762       0.10591718        6 
H      -3.56906935       0.44325661      -0.87338530        1 
H      -3.31169273       0.82697357       0.82433529        1 
H      -4.20341254      -0.63326236       0.38141402        1 
