27
Lattice="0.0 0.0 0.0 0.0 0.0 0.0 0.0 0.0 0.0" Properties=species:S:1:pos:R:3:Z:I:1 pbc="F F F"
C       0.63396438      -0.79952288       0.02256942        6 
C      -0.68722515      -0.33552774      -0.07653104        6 
C       1.75784811       0.17930102      -0.00037390        6 
C      -0.99812145       1.11447416      -0.33854146        6 
O       2.96269194      -0.42575519      -0.05913376        8 
O       1.62514904       1.38138119       0.03498758        8 
O      -1.28695640       1.76557582       0.79978522        8 
O      -1.05883427       1.59961241      -1.44016690        8 
C      -1.55599658       3.17405858       0.66168061        6 
C       4.10491268       0.44827230      -0.07700551        6 
C       0.87918734      -2.16985676       0.17342320        6 
C      -0.18149810      -3.06378671       0.23049322        6 
C      -1.48923723      -2.59625615       0.13083780        6 
C      -1.76475555      -1.23587623      -0.02938762        6 
H      -0.67365452       3.68052814       0.26830133        1 
H       4.06164302       1.11347386      -0.94050948        1 
H      -2.31542257      -3.29844408       0.17263517        1 
H      -2.40050907       3.33873489      -0.00921177        1 
H      -1.78622075       3.52428166       1.66531006        1 
H       4.96913783      -0.20909292      -0.14112878        1 
H       4.14245905       1.04544741       0.83542049        1 
H       0.00723589      -4.12422866       0.35209585        1 
H       1.89948044      -2.51900040       0.24962215        1 
C      -3.19043291      -0.75611640      -0.16631296        6 
H      -3.36155741      -0.31053723      -1.15062763        1 
H      -3.42700464       0.00398184       0.58283180        1 
H      -3.89152115      -1.58324300      -0.04410803        1 
