27
Lattice="0.0 0.0 0.0 0.0 0.0 0.0 0.0 0.0 0.0" Properties=species:S:1:pos:R:3:Z:I:1 pbc="F F F"
C       0.50291702      -1.01476692       0.27685209        6 
C      -0.60071648      -0.16508977      -0.01394328        6 
C       1.95109544      -0.62463046       0.11739061        6 
C      -0.44750229       1.28471442       0.35783014        6 
O       2.11375619       0.42360562      -0.70516672        8 
O       2.87341975      -1.31573451       0.48813992        8 
O      -1.48830544       2.05544328      -0.02795712        8 
O       0.50800745       1.74410050       0.93609700        8 
C      -1.40336659       3.44478663       0.33410798        6 
C       3.47095867       0.80327362      -0.98047628        6 
C       0.32052266      -2.39023578       0.38853547        6 
C      -0.93551870      -2.95460258       0.19167888        6 
C      -1.99422634      -2.14203728      -0.17728640        6 
C      -1.86667050      -0.74619713      -0.26728623        6 
H      -1.31293647       3.55330129       1.41585797        1 
H       3.97890079       1.08674659      -0.05732549        1 
H      -2.96381449      -2.58550638      -0.37561019        1 
H      -0.54082051       3.91117293      -0.14433661        1 
H      -2.32890811       3.89190059      -0.02252666        1 
H       3.40018027       1.65510782      -1.65312727        1 
H       4.01243221      -0.01847328      -1.45239596        1 
H      -1.07514860      -4.02542718       0.28748120        1 
H       1.18737465      -3.00774478       0.58487040        1 
C      -3.12602944       0.02037312      -0.61083366        6 
H      -2.96504129       0.71781399      -1.43221554        1 
H      -3.48434654       0.60897875       0.23633890        1 
H      -3.91284497      -0.68057075      -0.89528056        1 
