27
Lattice="0.0 0.0 0.0 0.0 0.0 0.0 0.0 0.0 0.0" Properties=species:S:1:pos:R:3:Z:I:1 pbc="F F F"
C       0.27259211      -0.86174232       0.05460767        6 
C      -0.87966840      -0.05549988      -0.08374621        6 
C       1.62839190      -0.32084296      -0.28047164        6 
C      -0.77823075       1.44012141      -0.07368482        6 
O       2.61187236      -1.04062568       0.30205686        8 
O       1.84028302       0.61537618      -1.01367732        8 
O       0.16497467       1.85328997       0.79604843        8 
O      -1.53016537       2.19569289      -0.64318804        8 
C       0.41691454       3.26758404       0.82799098        6 
C       3.95588691      -0.65202235      -0.03216894        6 
C       0.14556949      -2.23493670       0.26734628        6 
C      -1.11676718      -2.81495432       0.33809472        6 
C      -2.24716035      -2.02715708       0.17296729        6 
C      -2.15989381      -0.64311575      -0.03269716        6 
H       0.81362480       3.59393267      -0.13495447        1 
H       4.12208013      -0.73936958      -1.10713354        1 
H      -3.22953747      -2.48478708       0.21776865        1 
H      -0.49764356       3.81794877       1.05251233        1 
H       1.15597886       3.41159912       1.61302821        1 
H       4.59900207      -1.33896805       0.51351781        1 
H       4.14290266       0.37723163       0.27693841        1 
H      -1.21686440      -3.88157489       0.50446047        1 
H       1.03643882      -2.84189584       0.35121229        1 
C      -3.44175954       0.14603427      -0.16159411        6 
H      -3.52319797       0.60934283      -1.14586845        1 
H      -3.49517917       0.95788396       0.56720340        1 
H      -4.30023167      -0.51046384      -0.00813542        1 
