27
Lattice="0.0 0.0 0.0 0.0 0.0 0.0 0.0 0.0 0.0" Properties=species:S:1:pos:R:3:Z:I:1 pbc="F F F"
C       0.20068871      -1.19206742       0.03691149        6 
C      -0.69397780      -0.10539021       0.05092881        6 
C       1.68716511      -1.02450565       0.12626399        6 
C      -0.14026069       1.25486743       0.34493604        6 
O       2.13583885      -0.12627167      -0.77151164        8 
O       2.39942756      -1.66209526       0.86173385        8 
O      -0.69925224       2.21779522      -0.41299362        8 
O       0.72220566       1.47202196       1.16297505        8 
C      -0.22368733       3.55615387      -0.17794688        6 
C       3.54159974       0.17468108      -0.70770346        6 
C      -0.27266894      -2.49645627      -0.09112079        6 
C      -1.63681505      -2.72727272      -0.22519564        6 
C      -2.52239399      -1.65607495      -0.21139244        6 
C      -2.08026348      -0.33590210      -0.06590421        6 
H      -0.40808334       3.85043628       0.85635806        1 
H       3.77665895       0.64184428       0.25004583        1 
H      -3.58755350      -1.84151824      -0.29836078        1 
H       0.84575408       3.61852149      -0.38363943        1 
H      -0.78489798       4.18643194      -0.86403066        1 
H       3.72742902       0.86446913      -1.52787991        1 
H       4.13365428      -0.73375864      -0.82541102        1 
H      -2.01036026      -3.73950298      -0.33067006        1 
H       0.43366597      -3.31729009      -0.08703633        1 
C      -3.11283895       0.76684155      -0.00522641        6 
H      -3.08189105       1.38646452      -0.90345073        1 
H      -2.94965901       1.42995202       0.84711583        1 
H      -4.11264055       0.33889089       0.08629022        1 
