27
Lattice="0.0 0.0 0.0 0.0 0.0 0.0 0.0 0.0 0.0" Properties=species:S:1:pos:R:3:Z:I:1 pbc="F F F"
C      -0.21411562      -1.17809317       0.01891856        6 
C      -0.79303420       0.09689686       0.09340225        6 
C       1.25960347      -1.38678797      -0.12352089        6 
C       0.05477299       1.32443704       0.28013518        6 
O       1.96522232      -0.61411880       0.72333146        8 
O       1.76243468      -2.13527172      -0.92728374        8 
O       0.59996475       1.71723140      -0.88818473        8 
O       0.23807161       1.87945433       1.33293103        8 
C       1.48035737       2.85586697      -0.82145075        6 
C       3.39766781      -0.69069294       0.60837715        6 
C      -1.03078420      -2.30822109      -0.08651816        6 
C      -2.41181762      -2.17228486      -0.06987439        6 
C      -2.98223481      -0.90397318       0.01212376        6 
C      -2.19111523       0.24383644       0.09423382        6 
H       0.94385204       3.73244805      -0.45559967        1 
H       3.74140895      -1.70342050       0.82376886        1 
H      -4.06202355      -0.79920742       0.00968619        1 
H       2.31965648       2.64529931      -0.15682919        1 
H       1.82567826       3.01401082      -1.84049630        1 
H       3.78254232       0.00975395       1.34593159        1 
H       3.71368313      -0.41115847      -0.39797941        1 
H      -3.04546999      -3.04941298      -0.13432064        1 
H      -0.56888846      -3.28233905      -0.18817478        1 
C      -2.82777849       1.60992330       0.18429579        6 
H      -2.46213911       2.27114772      -0.60698763        1 
H      -2.59843131       2.08640601       1.14093333        1 
H      -3.91229410       1.53988631       0.08805546        1 
