27
Lattice="0.0 0.0 0.0 0.0 0.0 0.0 0.0 0.0 0.0" Properties=species:S:1:pos:R:3:Z:I:1 pbc="F F F"
C       0.74300567       0.71463639       0.11469018        6 
C      -0.61541936       0.33965897       0.02084260        6 
C       1.81172171      -0.31987699      -0.07321568        6 
C      -1.03283485      -1.06896190       0.35538790        6 
O       3.05247611       0.21298135       0.01015189        8 
O       1.62158109      -1.49576528      -0.26901623        8 
O      -1.85965230      -1.58555796      -0.57624003        8 
O      -0.66447710      -1.66897004       1.33172893        8 
C      -2.28898038      -2.94176377      -0.34965073        6 
C       4.13854266      -0.71457294      -0.15863512        6 
C       1.08833999       2.06774828       0.10283244        6 
C       0.10013546       3.04306422       0.03215291        6 
C      -1.23374279       2.66959848      -0.06757169        6 
C      -1.61782145       1.32322818      -0.06249190        6 
H      -1.42411331      -3.60109152      -0.26933559        1 
H       4.08925968      -1.50089733       0.59614924        1 
H      -2.00254298       3.43237522      -0.13008792        1 
H      -2.87993019      -3.00844072       0.56566547        1 
H      -2.89415466      -3.20181329      -1.21542579        1 
H       5.04409954      -0.12359314      -0.04034627        1 
H       4.10207162      -1.16842919      -1.15037535        1 
H       0.37253898       4.09210254       0.03803095        1 
H       2.13276376       2.34471878       0.12832738        1 
C      -3.09155194       0.98214753      -0.10459109        6 
H      -3.38027301       0.33286618       0.72641012        1 
H      -3.35188170       0.45703906      -1.02538405        1 
H      -3.69203991       1.89108110      -0.04206231        1 
