27
Lattice="0.0 0.0 0.0 0.0 0.0 0.0 0.0 0.0 0.0" Properties=species:S:1:pos:R:3:Z:I:1 pbc="F F F"
C      -0.16739710      -1.20691953      -0.01826648        6 
C      -0.74292507       0.07308786      -0.09310641        6 
C       1.30341084      -1.47285939       0.01232396        6 
C       0.07334535       1.32132523      -0.29662161        6 
O       2.03739543      -0.38683463      -0.28892584        8 
O       1.79169591      -2.54514360       0.28737083        8 
O       0.42509801       1.86862874       0.88188463        8 
O       0.33361075       1.79906483      -1.37118774        8 
C       1.22017815       3.06640748       0.80219913        6 
C       3.46486148      -0.55647406      -0.27701858        6 
C      -0.99459694      -2.33094359       0.09544499        6 
C      -2.37354912      -2.18809842       0.12257976        6 
C      -2.93750230      -0.91707565       0.04809780        6 
C      -2.14095305       0.22470608      -0.06223807        6 
H       2.15518981       2.86299164       0.27760553        1 
H       3.80889479      -0.80646904       0.72794423        1 
H      -4.01626220      -0.80439023       0.07441640        1 
H       0.67718186       3.85227519       0.27487165        1 
H       1.41252325       3.35578767       1.83272091        1 
H       3.87053814       0.40011956      -0.59821565        1 
H       3.75842291      -1.34930095      -0.96597574        1 
H      -3.00996738      -3.06164607       0.20536652        1 
H      -0.53063475      -3.30604979       0.16687861        1 
C      -2.77715870       1.59118096      -0.16090279        6 
H      -2.55219319       2.05960454      -1.12291238        1 
H      -2.40898627       2.25805230       0.62378813        1 
H      -3.86147473       1.52212143      -0.06248648        1 
