27
Lattice="0.0 0.0 0.0 0.0 0.0 0.0 0.0 0.0 0.0" Properties=species:S:1:pos:R:3:Z:I:1 pbc="F F F"
C      -0.12548701      -1.13868144       0.22203322        6 
C      -0.75577381       0.09040417      -0.04710528        6 
C       1.31990537      -1.41373421      -0.07804222        6 
C       0.00509217       1.37480215      -0.22179122        6 
O       2.15580591      -0.42028405       0.26925056        8 
O       1.68620388      -2.41566987      -0.64770494        8 
O       0.58841790       1.74629185       0.92957990        8 
O      -0.02384313       2.06491281      -1.21321613        8 
C       1.35480960       2.96173941       0.88650098        6 
C       3.53360063      -0.60132875      -0.11019706        6 
C      -0.90341028      -2.26894167       0.49659418        6 
C      -2.28563662      -2.17256246       0.55807185        6 
C      -2.90429605      -0.95866001       0.27455733        6 
C      -2.16199743       0.18280423      -0.03726562        6 
H       2.19739697       2.84902763       0.20153587        1 
H       3.94511314      -1.49311665       0.36411469        1 
H      -3.98658437      -0.88851944       0.29765685        1 
H       0.73608896       3.79877906       0.56037957        1 
H       1.70841074       3.11582392       1.90339164        1 
H       4.04737084       0.29096782       0.24024730        1 
H       3.61936831      -0.69768593      -1.19350592        1 
H      -2.88273020      -3.04519276       0.79688613        1 
H      -0.40899854      -3.22186350       0.63575660        1 
C      -2.87661819       1.47952218      -0.33831150        6 
H      -2.68926523       1.80347959      -1.36399595        1 
H      -2.54145785       2.28668075       0.31943322        1 
H      -3.95258496       1.36079290      -0.20211192        1 
