27
Lattice="0.0 0.0 0.0 0.0 0.0 0.0 0.0 0.0 0.0" Properties=species:S:1:pos:R:3:Z:I:1 pbc="F F F"
C       0.59773651      -0.91645487       0.27255294        6 
C      -0.59464614      -0.24519233      -0.07157987        6 
C       1.95606256      -0.27208887       0.33551154        6 
C      -0.60708037       1.25345482       0.03373580        6 
O       2.31540688       0.20624719      -0.86305096        8 
O       2.69480869      -0.34133685       1.28958240        8 
O      -1.78802279       1.70215126       0.51395890        8 
O       0.31237207       1.99552807      -0.21474762        8 
C      -1.89560677       3.12583040       0.69233150        6 
C       3.59406428       0.86115527      -0.92583687        6 
C       0.60167798      -2.29952053       0.45051221        6 
C      -0.55717239      -3.03279496       0.22580217        6 
C      -1.71307508      -2.38326818      -0.18837908        6 
C      -1.76862809      -0.99147182      -0.32080755        6 
H      -1.15093676       3.47668326       1.40824188        1 
H       3.58761487       1.74538517      -0.28697418        1 
H      -2.60532286      -2.96240310      -0.40153114        1 
H      -1.75150900       3.64329091      -0.25739887        1 
H      -2.90116025       3.29220665       1.07256390        1 
H       3.72039853       1.14547880      -1.96784426        1 
H       4.38946973       0.18512329      -0.60864124        1 
H      -0.55331322      -4.10962632       0.35152809        1 
H       1.52155030      -2.79151163       0.74108898        1 
C      -3.08427158      -0.38073945      -0.75171325        6 
H      -2.94700843       0.44208241      -1.45418212        1 
H      -3.63563064       0.01485111       0.10380114        1 
H      -3.70105547      -1.14162994      -1.23422668        1 
