27
Lattice="0.0 0.0 0.0 0.0 0.0 0.0 0.0 0.0 0.0" Properties=species:S:1:pos:R:3:Z:I:1 pbc="F F F"
C       0.51994876      -0.82930216      -0.06167775        6 
C      -0.75986352      -0.26933373       0.09765472        6 
C       1.72751777       0.02939032       0.11315989        6 
C      -0.96865303       1.21165609       0.26371863        6 
O       2.87468664      -0.66936985      -0.02300270        8 
O       1.70708997       1.21517330       0.35248806        8 
O      -0.76240903       1.85536948      -0.89758313        8 
O      -1.38774091       1.73161437       1.26805813        8 
C      -0.85418263       3.29063371      -0.84359757        6 
C       4.09105122       0.07813321       0.15106498        6 
C       0.65268283      -2.20711623      -0.27241079        6 
C      -0.47583309      -3.01319945      -0.33891432        6 
C      -1.73903516      -2.45277096      -0.17410309        6 
C      -1.90512295      -1.08271023       0.04701152        6 
H      -1.84296744       3.60094256      -0.50266051        1 
H       4.16990582       0.85925316      -0.60657803        1 
H      -2.61834455      -3.08645451      -0.22177647        1 
H      -0.09268314       3.68106653      -0.16693230        1 
H      -0.67367446       3.63006930      -1.86116384        1 
H       4.89324074      -0.64778896       0.03821390        1 
H       4.11941659       0.53379903       1.14179154        1 
H      -0.37292078      -4.07867702      -0.50984965        1 
H       1.64051035      -2.63392277      -0.37408719        1 
C      -3.29158049      -0.50700396       0.21427624        6 
H      -3.47562283       0.30532830      -0.49460147        1 
H      -3.42847758      -0.09653189       1.21715639        1 
H      -4.04907857      -1.27493519       0.04894337        1 
