27
Lattice="0.0 0.0 0.0 0.0 0.0 0.0 0.0 0.0 0.0" Properties=species:S:1:pos:R:3:Z:I:1 pbc="F F F"
C      -0.14193321      -1.20516642      -0.13629127        6 
C      -0.73193714       0.05183411       0.06296779        6 
C       1.32291238      -1.45274815       0.02384095        6 
C       0.09746099       1.27956546       0.32183754        6 
O       2.07013599      -0.40471680      -0.37439162        8 
O       1.78926355      -2.46522865       0.48992704        8 
O       0.31553065       1.96086525      -0.81603232        8 
O       0.44797778       1.65310488       1.41397527        8 
C       1.09202671       3.16581361      -0.68894193        6 
C       3.48547204      -0.51274233      -0.13616941        6 
C      -0.95042773      -2.32657176      -0.35117621        6 
C      -2.32990510      -2.19039755      -0.40665641        6 
C      -2.90987374      -0.93952110      -0.20804743        6 
C      -2.13009896       0.19418042       0.03139210        6 
H       0.59229609       3.87672562      -0.02904723        1 
H       3.68108608      -0.61922254       0.93173494        1 
H      -3.98964740      -0.83715340      -0.23508652        1 
H       2.08043857       2.93740972      -0.28705994        1 
H       1.17149729       3.56625802      -1.69697756        1 
H       3.91372070       0.41218507      -0.51551189        1 
H       3.89572232      -1.37272062      -0.66699076        1 
H      -2.95562543      -3.05686598      -0.58756169        1 
H      -0.48041352      -3.29534186      -0.46375495        1 
C      -2.78208928       1.53766261       0.25532000        6 
H      -2.50306199       2.24656786      -0.52971341        1 
H      -2.47852827       1.96915063       1.21279276        1 
H      -3.86910482       1.44547951       0.25511142        1 
