27
Lattice="0.0 0.0 0.0 0.0 0.0 0.0 0.0 0.0 0.0" Properties=species:S:1:pos:R:3:Z:I:1 pbc="F F F"
C       0.74324581       0.69771673      -0.08387334        6 
C      -0.61893499       0.32201758       0.01579668        6 
C       1.82465501      -0.30757599       0.19045764        6 
C      -0.99045963      -1.09901538      -0.31449302        6 
O       3.03901676       0.14226333      -0.19994229        8 
O       1.65927322      -1.38865223       0.69877733        8 
O      -2.05276566      -1.53804130       0.39348435        8 
O      -0.38832437      -1.79238503      -1.09486115        8 
C      -2.44312846      -2.90243137       0.15282547        6 
C       4.13680085      -0.75724649       0.03397069        6 
C       1.09305429       2.04662552      -0.11869140        6 
C       0.10730036       3.02804838      -0.07826272        6 
C      -1.22495416       2.66038439       0.03235325        6 
C      -1.61839417       1.31441126       0.06262774        6 
H      -2.70958600      -3.04612489      -0.89552819        1 
H       4.23451816      -0.97389422       1.09897843        1 
H      -1.99133359       3.42693895       0.07075160        1 
H      -1.62767083      -3.57894271       0.41220645        1 
H      -3.30444884      -3.07380429       0.79515654        1 
H       5.01897284      -0.23914384      -0.33569328        1 
H       3.98319344      -1.69150719      -0.50842161        1 
H       0.38223452       4.07582053      -0.11620214        1 
H       2.13903212       2.31817933      -0.15069313        1 
C      -3.10131313       1.01277176       0.10004656        6 
H      -3.37984090       0.49048716       1.01621264        1 
H      -3.40858098       0.37572963      -0.73243957        1 
H      -3.67177849       1.94137587       0.04195744        1 
