27
Lattice="0.0 0.0 0.0 0.0 0.0 0.0 0.0 0.0 0.0" Properties=species:S:1:pos:R:3:Z:I:1 pbc="F F F"
C       0.34908681      -1.12676582       0.07594902        6 
C      -0.67548088      -0.15864804       0.02823439        6 
C       1.80745732      -0.78193491       0.16748683        6 
C      -0.28132697       1.26056135       0.29516928        6 
O       2.19061620       0.00296679      -0.85662356        8 
O       2.55761492      -1.23333373       0.99668293        8 
O      -1.11183905       2.15987174      -0.26786485        8 
O       0.69713306       1.58220035       0.92931341        8 
C      -0.78643422       3.54359141      -0.04100970        6 
C       3.55442774       0.45949412      -0.81502598        6 
C       0.05047766      -2.48412959      -0.00745650        6 
C      -1.26938497      -2.89392037      -0.15518681        6 
C      -2.28285884      -1.94576534      -0.20392030        6 
C      -2.02093619      -0.57347286      -0.10448269        6 
H      -0.77450511       3.76290651       1.02750358        1 
H       3.70975321       1.07595532       0.07188559        1 
H      -3.31249927      -2.27246566      -0.30067076        1 
H       0.19048120       3.77770956      -0.46622287        1 
H      -1.56879017       4.10920628      -0.54220534        1 
H       3.69111102       1.04650553      -1.72055036        1 
H       4.24247169      -0.38682166      -0.79627748        1 
H      -1.50860611      -3.94907173      -0.22494959        1 
H       0.85512451      -3.20724993       0.04170767        1 
C      -3.20633765       0.36556158      -0.10847470        6 
H      -3.21709207       0.99254815      -1.00150073        1 
H      -3.19781295       1.03874359       0.75079330        1 
H      -4.13350867      -0.20940860      -0.07948848        1 
