27
Lattice="0.0 0.0 0.0 0.0 0.0 0.0 0.0 0.0 0.0" Properties=species:S:1:pos:R:3:Z:I:1 pbc="F F F"
C       0.33736261      -1.12576594       0.19164462        6 
C      -0.64523912      -0.12142524       0.00725424        6 
C       1.81854227      -0.88588271       0.10647524        6 
C      -0.26578254       1.28349144       0.37674355        6 
O       2.12014644       0.15113731      -0.69423423        8 
O       2.64912255      -1.64621745       0.54770155        8 
O      -1.04422982       2.21966338      -0.20491312        8 
O       0.65844090       1.56488436       1.10187822        8 
C      -0.73416409       3.58499061       0.12708410        6 
C       3.51931230       0.43762579      -0.85115206        6 
C      -0.02132841      -2.47104952       0.20536303        6 
C      -1.35012007      -2.84262916       0.03156180        6 
C      -2.30991423      -1.86649048      -0.18761355        6 
C      -1.99341877      -0.49950861      -0.18876536        6 
H      -0.81147412       3.74381480       1.20365880        1 
H       3.96062718       0.69573095       0.11278206        1 
H      -3.34342205      -2.15950913      -0.33659619        1 
H       0.27633347       3.83524638      -0.19921047        1 
H      -1.46905373       4.18525313      -0.40491491        1 
H       3.56539519       1.28522826      -1.53126193        1 
H       4.04249018      -0.42321764      -1.27023811        1 
H      -1.63151031      -3.88950288       0.04755976        1 
H       0.75717382      -3.21333401       0.32537631        1 
C      -3.13982715       0.47222932      -0.36424820        6 
H      -2.99638572       1.10677138      -1.23931553        1 
H      -3.24348128       1.13895375       0.49446036        1 
H      -4.07490101      -0.07793983      -0.48117044        1 
