27
Lattice="0.0 0.0 0.0 0.0 0.0 0.0 0.0 0.0 0.0" Properties=species:S:1:pos:R:3:Z:I:1 pbc="F F F"
C       0.39609946      -0.95056096      -0.26397940        6 
C      -0.71863660      -0.19079333       0.10208967        6 
C       1.75193329      -0.31198388      -0.34349954        6 
C      -0.56313813       1.28635335       0.32921783        6 
O       2.51248670      -0.67301269       0.70341468        8 
O       2.13270940       0.39139515      -1.24788828        8 
O      -0.92779396       1.97880645      -0.76143519        8 
O      -0.18991047       1.79033596       1.36100011        8 
C      -0.79806170       3.41275989      -0.67829361        6 
C       3.85054304      -0.13543395       0.72969321        6 
C       0.26443843      -2.31976270      -0.49841520        6 
C      -0.98661972      -2.91756301      -0.39435991        6 
C      -2.09503487      -2.15741623      -0.02872235        6 
C      -1.98467374      -0.78740657       0.21991239        6 
H      -1.43872612       3.80776263       0.11176474        1 
H       4.41270068      -0.47483276      -0.14171945        1 
H      -3.06590244      -2.63242552       0.06366491        1 
H       0.23835315       3.68471513      -0.47556239        1 
H      -1.10888150       3.78531334      -1.65131499        1 
H       4.29356757      -0.51482506       1.64720711        1 
H       3.81840128       0.95460857       0.73841181        1 
H      -1.09730325      -3.97871266      -0.58644198        1 
H       1.13543961      -2.90856383      -0.75989439        1 
C      -3.19570345       0.02874359       0.60147250        6 
H      -3.45035411       0.74276030      -0.18756843        1 
H      -3.01751778       0.60052431       1.51651151        1 
H      -4.06196856      -0.61333075       0.76811500        1 
