27
Lattice="0.0 0.0 0.0 0.0 0.0 0.0 0.0 0.0 0.0" Properties=species:S:1:pos:R:3:Z:I:1 pbc="F F F"
C      -0.16053335      -1.21184922       0.03655457        6 
C      -0.73964749       0.06724595       0.10229132        6 
C       1.31082522      -1.47339017      -0.00621535        6 
C       0.07180963       1.31718698       0.31519344        6 
O       2.04488345      -0.38249188       0.27612448        8 
O       1.79927162      -2.54494352      -0.28387476        8 
O       0.39681258       1.88983382      -0.85910599        8 
O       0.35084905       1.77493487       1.39361183        8 
C       1.18206745       3.09335263      -0.77280048        6 
C       3.47248642      -0.54534765       0.23731281        6 
C      -0.98465406      -2.33823091      -0.07607413        6 
C      -2.36375293      -2.19900518      -0.11174294        6 
C      -2.93096624      -0.92873462      -0.05114676        6 
C      -2.13768082       0.21545863       0.05727648        6 
H       0.63881454       3.86706022      -0.22798597        1 
H       3.78425868      -1.32757901       0.93038607        1 
H      -4.00967446      -0.81844384      -0.08748839        1 
H       2.12575131       2.89156633      -0.26345914        1 
H       1.35821650       3.39899719      -1.80158414        1 
H       3.87976770       0.41731254       0.53781693        1 
H       3.79755805      -0.80640525      -0.77115896        1 
H      -2.99752815      -3.07467771      -0.19219149        1 
H      -0.51813449      -3.31247993      -0.14216374        1 
C      -2.77748738       1.58173151       0.13433133        6 
H      -2.42655834       2.22909115      -0.67417400        1 
H      -2.53790504       2.07592632       1.07977348        1 
H      -3.86314865       1.50612387       0.05768519        1 
