27
Lattice="0.0 0.0 0.0 0.0 0.0 0.0 0.0 0.0 0.0" Properties=species:S:1:pos:R:3:Z:I:1 pbc="F F F"
C       0.73622953       0.66856986       0.09019618        6 
C      -0.62532349       0.29163573      -0.06690095        6 
C       1.85760600      -0.25536153      -0.30371807        6 
C      -0.94829097      -1.15828316       0.18265671        6 
O       2.97934090      -0.00242585       0.40810523        8 
O       1.79089345      -1.09878682      -1.16011711        8 
O      -2.24800016      -1.46416273      -0.03028276        8 
O      -0.14424785      -1.99269489       0.51907327        8 
C      -2.61043169      -2.83904915       0.18764749        6 
C       4.11410303      -0.82564473       0.08387166        6 
C       1.08124826       2.00689787       0.25871861        6 
C       0.09643811       2.99080433       0.25679561        6 
C      -1.22412994       2.63421243       0.04207180        6 
C      -1.62146811       1.29426395      -0.10005065        6 
H      -2.05405578      -3.49114885      -0.48715532        1 
H       3.86625202      -1.87948408       0.21842650        1 
H      -1.98624755       3.40511548       0.00875616        1 
H      -2.40349012      -3.13214041       1.21809783        1 
H      -3.67739950      -2.89089196      -0.01958801        1 
H       4.89888841      -0.52273957       0.77351228        1 
H       4.42423571      -0.66051792      -0.94949839        1 
H       0.36514364       4.03197869       0.39365893        1 
H       2.12549467       2.27220670       0.35421517        1 
C      -3.10568814       1.04445318      -0.26221752        6 
H      -3.52545365       0.52816941       0.60326898        1 
H      -3.31961067       0.42215252      -1.13099562        1 
H      -3.62462916       1.99777277      -0.37813424        1 
