27
Lattice="0.0 0.0 0.0 0.0 0.0 0.0 0.0 0.0 0.0" Properties=species:S:1:pos:R:3:Z:I:1 pbc="F F F"
C       0.52851524      -0.75908149       0.16680521        6 
C      -0.76127549      -0.26734730      -0.12250753        6 
C       1.72781475       0.10069706      -0.08920507        6 
C      -1.04842094       1.20445678      -0.23820261        6 
O       2.86553747      -0.62969828      -0.12077493        8 
O       1.72186858       1.29926170      -0.24482787        8 
O      -0.72405834       1.83904073       0.90043652        8 
O      -1.65346407       1.71828775      -1.14869326        8 
C      -0.89127927       3.26692266       0.89486500        6 
C       4.07747825       0.10618415      -0.36005187        6 
C       0.70179070      -2.11701595       0.45564460        6 
C      -0.39342901      -2.97066494       0.48800329        6 
C      -1.65868097      -2.48431626       0.18016918        6 
C      -1.86937188      -1.13562273      -0.12657949        6 
H      -0.21556159       3.71196982       0.16269828        1 
H       4.03189739       0.61025794      -1.32652628        1 
H      -2.50905655      -3.15773169       0.18657212        1 
H      -1.92102172       3.53518295       0.65466809        1 
H      -0.63185875       3.59224689       1.89982080        1 
H       4.87164186      -0.63714764      -0.35211019        1 
H       4.23533287       0.84781197       0.42441333        1 
H      -0.25824023      -4.01869435       0.72977144        1 
H       1.69734302      -2.49622338       0.63706309        1 
C      -3.27117868      -0.65661978      -0.42611330        6 
H      -3.35661338      -0.30571588      -1.45623930        1 
H      -3.55849431       0.17981499       0.21638164        1 
H      -3.98858901      -1.46443910      -0.27164409        1 
