27
Lattice="0.0 0.0 0.0 0.0 0.0 0.0 0.0 0.0 0.0" Properties=species:S:1:pos:R:3:Z:I:1 pbc="F F F"
C      -0.05452759      -1.22815522       0.08210000        6 
C      -0.72504958      -0.00441589      -0.05876373        6 
C       1.42888666      -1.34418704      -0.06458427        6 
C       0.05734850       1.24220405      -0.35257618        6 
O       2.07554721      -0.38694906       0.63063454        8 
O       1.98281679      -2.18203714      -0.73313216        8 
O      -0.02673196       2.12976488       0.65433135        8 
O       0.66195998       1.44087098      -1.37802562        8 
C       0.69146604       3.36332778       0.46315070        6 
C       3.50238668      -0.33253835       0.44733003        6 
C      -0.77990453      -2.40623750       0.27022077        6 
C      -2.16568658      -2.36008418       0.35195300        6 
C      -2.82791604      -1.14317731       0.21242055        6 
C      -2.12834084       0.04828586       0.00241435        6 
H       1.75371269       3.16197930       0.31825384        1 
H       3.95883885      -1.28374484       0.72358646        1 
H      -3.91155520      -1.11441274       0.25602163        1 
H       0.30613348       3.89985647      -0.40529072        1 
H       0.52944990       3.93657777       1.37306926        1 
H       3.84775478       0.46426691       1.10212671        1 
H       3.73641404      -0.10592005      -0.59400392        1 
H      -2.73210669      -3.27107876       0.50831200        1 
H      -0.24826535      -3.34660011       0.34624695        1 
C      -2.87765303       1.34828489      -0.17047816        6 
H      -2.51280726       1.90770663      -1.03595859        1 
H      -2.75755912       1.98851230       0.70729036        1 
H      -3.94302650       1.16282627      -0.31663905        1 
