27
Lattice="0.0 0.0 0.0 0.0 0.0 0.0 0.0 0.0 0.0" Properties=species:S:1:pos:R:3:Z:I:1 pbc="F F F"
C      -0.15459923      -1.01124639       0.24741340        6 
C      -0.79908294       0.21144958      -0.06078156        6 
C       1.32298588      -1.24142061       0.12190513        6 
C      -0.06910811       1.51165900       0.07879087        6 
O       1.83250811      -0.60002756      -0.94963893        8 
O       1.94876837      -2.04002710       0.77801307        8 
O       1.09020355       1.36172012       0.75673574        8 
O      -0.50286770       2.60173106      -0.21896472        8 
C       1.84818166       2.55735354       0.99449563        6 
C       3.23196830      -0.80849414      -1.19778650        6 
C      -0.89722678      -2.17091988       0.45197484        6 
C      -2.28169588      -2.14466383       0.31595597        6 
C      -2.91218129      -0.96496033      -0.05018562        6 
C      -2.20307345       0.23207895      -0.22827891        6 
H       2.15886602       3.00611802       0.04916437        1 
H       3.82565465      -0.43353822      -0.36191729        1 
H      -3.98839018      -0.95367377      -0.18293359        1 
H       1.25670101       3.28052104       1.55772365        1 
H       2.71405585       2.23827138       1.57052655        1 
H       3.45103112      -0.24852341      -2.10433718        1 
H       3.44286098      -1.86942099      -1.33965845        1 
H      -2.86184598      -3.04731193       0.47181709        1 
H      -0.37542939      -3.09091964       0.68304770        1 
C      -2.99548419       1.47260919      -0.56540830        6 
H      -2.62977511       1.94820424      -1.47584140        1 
H      -2.92032995       2.22510680       0.22250265        1 
H      -4.04723870       1.21253493      -0.69966252        1 
