27
Lattice="0.0 0.0 0.0 0.0 0.0 0.0 0.0 0.0 0.0" Properties=species:S:1:pos:R:3:Z:I:1 pbc="F F F"
C       0.59571259      -0.79987228       0.14845228        6 
C      -0.69651054      -0.31145578      -0.09265655        6 
C       1.75553159       0.13741253       0.09803176        6 
C      -0.94080029       1.15157118      -0.34803225        6 
O       2.88117257      -0.48039296      -0.31397940        8 
O       1.71649837       1.30296690       0.41863566        8 
O      -1.25029154       1.79366817       0.78774365        8 
O      -0.94465482       1.65727704      -1.44349672        8 
C      -1.45649829       3.21425530       0.66957990        6 
C       4.06653678       0.33519518      -0.35428136        6 
C       0.79347224      -2.16833524       0.36244147        6 
C      -0.29452664      -3.03148960       0.37484614        6 
C      -1.57510713      -2.53965060       0.13391023        6 
C      -1.79866000      -1.18200975      -0.10786705        6 
H      -0.53803217       3.69172348       0.32602485        1 
H       3.92475715       1.17686202      -1.03342613        1 
H      -2.42015580      -3.22004984       0.13105956        1 
H      -2.26457029       3.42719890      -0.03187357        1 
H      -1.71398307       3.55248942       1.67058192        1 
H       4.85513388      -0.32121649      -0.71505042        1 
H       4.30359243       0.71226612       0.64182889        1 
H      -0.14638758      -4.08933331       0.55939659        1 
H       1.79615689      -2.54182625       0.52076903        1 
C      -3.19186953      -0.67100384      -0.38820123        6 
H      -3.25737003      -0.23979320      -1.39111132        1 
H      -3.47790883       0.10926452       0.32263396        1 
H      -3.92347695      -1.47749885      -0.31778274        1 
