27
Lattice="0.0 0.0 0.0 0.0 0.0 0.0 0.0 0.0 0.0" Properties=species:S:1:pos:R:3:Z:I:1 pbc="F F F"
C      -0.08807353      -0.97602558      -0.16916065        6 
C      -0.86179816       0.17951579       0.03779150        6 
C       1.40987214      -0.97356095      -0.30795217        6 
C      -0.27174627       1.53526842      -0.20315683        6 
O       2.00419323      -0.90726862       0.89456709        8 
O       2.00119893      -1.15475500      -1.34484325        8 
O       0.96096781       1.66639574       0.32224203        8 
O      -0.80724056       2.40086186      -0.85485390        8 
C       1.65946858       2.88397786       0.00082772        6 
C       3.44236545      -0.94836682       0.88760993        6 
C      -0.69232333      -2.23386485      -0.18675439        6 
C      -2.05850717      -2.34961787       0.03685486        6 
C      -2.82039462      -1.21047713       0.27412514        6 
C      -2.25296537       0.06577937       0.25081605        6 
H       1.79079649       2.97016336      -1.07878771        1 
H       3.79786310      -1.87506986       0.43450688        1 
H      -3.88397830      -1.30710405       0.46376370        1 
H       1.10630254       3.74919730       0.36799451        1 
H       2.62188919       2.80324756       0.50096155        1 
H       3.73739733      -0.89269553       1.93289322        1 
H       3.84233754      -0.10031743       0.32911468        1 
H      -2.52774235      -3.32702216       0.03453569        1 
H      -0.08722161      -3.11523466      -0.36309454        1 
C      -3.14667945       1.26550093       0.45670926        6 
H      -3.33192151       1.77987606      -0.48877121        1 
H      -2.70141542       1.99836113       1.13251574        1 
H      -4.10464822       0.95149233       0.87535449        1 
