27
Lattice="0.0 0.0 0.0 0.0 0.0 0.0 0.0 0.0 0.0" Properties=species:S:1:pos:R:3:Z:I:1 pbc="F F F"
C       0.08825213      -1.11000039       0.07618498        6 
C      -0.75942836       0.00051752       0.13737788        6 
C       1.56340993      -0.98768487       0.33555883        6 
C      -0.19385236       1.36593311       0.40578673        6 
O       2.23878206      -0.78856509      -0.81433114        8 
O       2.08220021      -1.06497457       1.41897781        8 
O      -0.11044786       2.08539048      -0.73148049        8 
O       0.12841357       1.78237749       1.48967287        8 
C       0.40345753       3.42482846      -0.59213088        6 
C       3.67105980      -0.67384115      -0.69233689        6 
C      -0.43804299      -2.37932734      -0.16941745        6 
C      -1.80678739      -2.53586770      -0.35335487        6 
C      -2.64810662      -1.42850976      -0.28984690        6 
C      -2.14426721      -0.14789309      -0.05160494        6 
H      -0.23770130       4.01158259       0.06774335        1 
H       3.93099248       0.16440039      -0.04430562        1 
H      -3.71642785      -1.55613974      -0.42898984        1 
H       1.41380004       3.40164404      -0.18138219        1 
H       0.40545911       3.83884845      -1.59763986        1 
H       4.03348311      -0.50797892      -1.70405485        1 
H       4.09104570      -1.59141904      -0.27727845        1 
H      -2.21936969      -3.52064866      -0.54086986        1 
H       0.22282751      -3.23725529      -0.20885753        1 
C      -3.07097721       1.04264754      -0.00285248        6 
H      -2.90462559       1.70143096      -0.86000895        1 
H      -2.91377697       1.63504726       0.90293486        1 
H      -4.11401568       0.72280732      -0.01847479        1 
