27
Lattice="0.0 0.0 0.0 0.0 0.0 0.0 0.0 0.0 0.0" Properties=species:S:1:pos:R:3:Z:I:1 pbc="F F F"
C       0.26408098      -1.15898797      -0.16529172        6 
C      -0.65653658      -0.09428356      -0.00902094        6 
C       1.75691514      -1.01052079      -0.07943587        6 
C      -0.20334567       1.28682593      -0.38527964        6 
O       2.12868028       0.08546956       0.60359476        8 
O       2.53664656      -1.86644252      -0.43045737        8 
O      -0.83915970       2.25799476       0.30227459        8 
O       0.65988312       1.51583657      -1.19753377        8 
C      -0.45488153       3.60697947      -0.01928326        6 
C       3.54431639       0.28071907       0.75527403        6 
C      -0.17982127      -2.47959301      -0.15508686        6 
C      -1.53070474      -2.76489383       0.00752905        6 
C      -2.43171683      -1.72623384       0.18884596        6 
C      -2.02800504      -0.38327240       0.16806571        6 
H       0.60525746       3.75886724       0.18796084        1 
H       3.99419728      -0.56741882       1.27356892        1 
H      -3.48436164      -1.94929687       0.32488614        1 
H      -0.64728910       3.81986417      -1.07198048        1 
H      -1.06635233       4.24102581       0.61903815        1 
H       3.64886396       1.19081759       1.34159247        1 
H       4.01469288       0.39825891      -0.22216542        1 
H      -1.87563885      -3.79268834       0.00933341        1 
H       0.55278802      -3.27054333      -0.24991944        1 
C      -3.10758978       0.66960119       0.29303063        6 
H      -3.11559974       1.34918559      -0.56218192        1 
H      -2.96661690       1.28357891       1.18341862        1 
H      -4.08643864       0.19069722       0.35163653        1 
