27
Lattice="0.0 0.0 0.0 0.0 0.0 0.0 0.0 0.0 0.0" Properties=species:S:1:pos:R:3:Z:I:1 pbc="F F F"
C      -0.13462151      -1.18032859       0.10744537        6 
C      -0.75906592       0.05876385      -0.07689213        6 
C       1.32425202      -1.36540814      -0.18349247        6 
C       0.05892392       1.29142324      -0.34185980        6 
O       2.10271804      -0.63175207       0.63507306        8 
O       1.74817281      -2.04455889      -1.08539572        8 
O       0.35799437       1.92721409       0.80361808        8 
O       0.36231983       1.69533745      -1.43791071        8 
C       1.14199701       3.12835176       0.67123843        6 
C       3.51681944      -0.67263094       0.35762685        6 
C      -0.90526968      -2.31852183       0.35753806        6 
C      -2.28492482      -2.20854622       0.47338375        6 
C      -2.90111034      -0.97271816       0.28988905        6 
C      -2.15661196       0.17503684       0.00994104        6 
H       2.09774810       2.90539221       0.19428605        1 
H       3.88847278      -1.69566349       0.42786974        1 
H      -3.98068639      -0.89412987       0.36244479        1 
H       0.60812555       3.86998206       0.07496713        1 
H       1.29408940       3.48658438       1.68658993        1 
H       3.97729820      -0.04335133       1.11565223        1 
H       3.71530958      -0.28504558      -0.64275109        1 
H      -2.88362319      -3.08699493       0.68566493        1 
H      -0.41867625      -3.28184377       0.45113722        1 
C      -2.83913062       1.50411003      -0.20532964        6 
H      -2.62536789       1.89796467      -1.20280219        1 
H      -2.49777153       2.24653774       0.52212946        1 
H      -3.92093008       1.40602752      -0.10432224        1 
