27
Lattice="0.0 0.0 0.0 0.0 0.0 0.0 0.0 0.0 0.0" Properties=species:S:1:pos:R:3:Z:I:1 pbc="F F F"
C      -0.22987633      -1.05031506       0.12464550        6 
C      -0.84641374       0.20679008      -0.01321405        6 
C       1.25739446      -1.22674823       0.19367818        6 
C      -0.01932533       1.45084491      -0.05599403        6 
O       1.85368325      -0.74978158      -0.91873866        8 
O       1.84527192      -1.76140287       1.09984243        8 
O       0.99636501       1.38850594       0.83106724        8 
O      -0.22615495       2.40781105      -0.76320380        8 
C       1.92431440       2.48601001       0.81672802        6 
C       3.28897227      -0.84244141      -0.95007586        6 
C      -1.00038490      -2.20954374       0.20240263        6 
C      -2.38497950      -2.12596088       0.11317308        6 
C      -2.99518691      -0.88575293      -0.03901303        6 
C      -2.25097426       0.29673779      -0.10511732        6 
H       2.38888242       2.57622919      -0.16681507        1 
H       3.72265170      -0.28775465      -0.11620245        1 
H      -4.07639406      -0.82499998      -0.10056205        1 
H       1.41614842       3.41988556       1.06068391        1 
H       2.66692610       2.24433097       1.57383453        1 
H       3.58644701      -0.40529150      -1.90052412        1 
H       3.60588146      -1.88471030      -0.89013018        1 
H      -2.98838608      -3.02512933       0.16565775        1 
H      -0.50968839      -3.16710274       0.32708349        1 
C      -2.97853119       1.61157031      -0.25406060        6 
H      -2.79313402       2.05272951      -1.23507591        1 
H      -2.65174627       2.34489066       0.48653982        1 
H      -4.05298620       1.46056665      -0.13472193        1 
