27
Lattice="0.0 0.0 0.0 0.0 0.0 0.0 0.0 0.0 0.0" Properties=species:S:1:pos:R:3:Z:I:1 pbc="F F F"
C       0.27214922      -0.82112962      -0.11084619        6 
C      -0.87333204      -0.00943093       0.10470514        6 
C       1.64164229      -0.36399589       0.30376427        6 
C      -0.79060677       1.48658621       0.00380313        6 
O       2.61111653      -1.09815082      -0.29013790        8 
O       1.87599236       0.52076322       1.08936548        8 
O       0.32341577       1.87863710      -0.64396162        8 
O      -1.68428862       2.25787197       0.27316958        8 
C       0.49499790       3.29352545      -0.80980238        6 
C       3.95858432      -0.79511079       0.10832526        6 
C       0.12411284      -2.17961961      -0.38901853        6 
C      -1.14245848      -2.75429959      -0.44031359        6 
C      -2.25605159      -1.97849872      -0.16524009        6 
C      -2.15589186      -0.60272763       0.09610559        6 
H      -0.32978315       3.71663025      -1.38550941        1 
H       4.20190937       0.24251109      -0.12490323        1 
H      -3.24064845      -2.43304608      -0.17149023        1 
H       0.54643776       3.78490593       0.16317938        1 
H       1.43584012       3.40834872      -1.34362313        1 
H       4.58840647      -1.47402570      -0.46260391        1 
H       4.08634736      -0.96027867       1.17949848        1 
H      -1.25343945      -3.80960932      -0.66260265        1 
H       1.00753249      -2.78751539      -0.52532745        1 
C      -3.44426845       0.15424814       0.32125036        6 
H      -3.61650331       0.89880332      -0.45900105        1 
H      -3.43205205       0.69972480       1.26488618        1 
H      -4.28310100      -0.54468377       0.32606835        1 
