27
Lattice="0.0 0.0 0.0 0.0 0.0 0.0 0.0 0.0 0.0" Properties=species:S:1:pos:R:3:Z:I:1 pbc="F F F"
C       0.68924544      -0.74309237      -0.01068724        6 
C      -0.65182380      -0.30311356       0.07980180        6 
C       1.86589034       0.13019293       0.33572838        6 
C      -0.86794643       1.17655027      -0.03858035        6 
O       2.75466548       0.17197332      -0.67608495        8 
O       2.03030446       0.65062047       1.40822994        8 
O      -2.16775200       1.52476366      -0.14409496        8 
O       0.01834374       1.99846194      -0.04879532        8 
C      -2.43115351       2.93330663      -0.27324230        6 
C       3.94548069       0.94363666      -0.42839466        6 
C       0.98415949      -2.09331588      -0.18225399        6 
C      -0.04239397      -3.02993478      -0.22785162        6 
C      -1.35675522      -2.61222652      -0.08117931        6 
C      -1.69736807      -1.25933661       0.05462299        6 
H      -2.07333582       3.46974571       0.60655763        1 
H       3.68317227       1.98089585      -0.21607188        1 
H      -2.15319863      -3.34825082      -0.08960126        1 
H      -1.94048212       3.33393211      -1.16129499        1 
H      -3.51246882       3.01557134      -0.36135619        1 
H       4.53053385       0.87296667      -1.34265924        1 
H       4.49890699       0.53075537       0.41662707        1 
H       0.18323967      -4.08237945      -0.35824073        1 
H       2.01815835      -2.40716922      -0.25335241        1 
C      -3.17255660      -0.94136832       0.16564226        6 
H      -3.54202665      -0.43518914      -0.72822269        1 
H      -3.38681650      -0.28492596       1.00910490        1 
H      -3.73548453      -1.86776583       0.29335683        1 
