27
Lattice="0.0 0.0 0.0 0.0 0.0 0.0 0.0 0.0 0.0" Properties=species:S:1:pos:R:3:Z:I:1 pbc="F F F"
C       0.41410952      -0.85332350      -0.05137326        6 
C      -0.81719570      -0.18491863       0.09646002        6 
C       1.69368274      -0.12358628       0.19873265        6 
C      -0.89416146       1.31261690       0.19215147        6 
O       2.77285941      -0.86351783      -0.13671052        8 
O       1.78050204       0.99190026       0.65739728        8 
O      -0.35307217       1.88737897      -0.89719350        8 
O      -1.48052348       1.91766774       1.05607947        8 
C      -0.29104995       3.32427689      -0.88152054        6 
C       4.05266351      -0.25558162       0.10907168        6 
C       0.43365455      -2.23554631      -0.26470743        6 
C      -0.75812684      -2.94533301      -0.34006607        6 
C      -1.96966057      -2.28232564      -0.18151430        6 
C      -2.02628680      -0.90126650       0.03711746        6 
H      -1.28671888       3.75180879      -0.75575826        1 
H       4.14484965       0.67832767      -0.44716809        1 
H      -2.89779880      -2.84134607      -0.23659346        1 
H       0.35528738       3.65411277      -0.06652475        1 
H       0.13137974       3.60598868      -1.84343992        1 
H       4.78695639      -0.98121709      -0.23375338        1 
H       4.17971725      -0.05289855       1.17376036        1 
H      -0.74319751      -4.01575762      -0.51077280        1 
H       1.38333687      -2.74412229      -0.35447580        1 
C      -3.37129361      -0.22765855       0.17874351        6 
H      -3.49181737       0.58713213      -0.54028809        1 
H      -3.49171081       0.20642036       1.17283552        1 
H      -4.17525559      -0.94629452       0.01103655        1 
