27
Lattice="0.0 0.0 0.0 0.0 0.0 0.0 0.0 0.0 0.0" Properties=species:S:1:pos:R:3:Z:I:1 pbc="F F F"
C      -0.20263812      -1.18630332       0.00684323        6 
C      -0.76090588       0.09903382      -0.09483376        6 
C       1.26499252      -1.46708984       0.02117231        6 
C       0.08189878       1.33456365      -0.25645221        6 
O       1.99400667      -0.43956159      -0.45200836        8 
O       1.75324649      -2.50678390       0.40032641        8 
O       0.56235430       1.74880313       0.93160987        8 
O       0.26297600       1.90977469      -1.29916950        8 
C       1.41127858       2.91074634       0.89273889        6 
C       3.42023510      -0.62038066      -0.46344586        6 
C      -1.04318670      -2.29892079       0.12864560        6 
C      -2.42080104      -2.13827105       0.13412644        6 
C      -2.96813466      -0.86225466       0.02785628        6 
C      -2.15684578       0.26888718      -0.08811509        6 
H       2.29090716       2.71346272       0.27757737        1 
H       3.79400596      -0.74647115       0.55393502        1 
H      -4.04574332      -0.73692567       0.03680743        1 
H       0.87210550       3.76630346       0.48339379        1 
H       1.69799372       3.09474640       1.92556899        1 
H       3.82080737       0.28444704      -0.91468173        1 
H       3.68656061      -1.49656456      -1.05585925        1 
H      -3.06923090      -3.00237680       0.22277934        1 
H      -0.59285258      -3.27897856       0.21867526        1 
C      -2.77563724       1.64115918      -0.21047185        6 
H      -2.56411240       2.07892568      -1.18933469        1 
H      -2.38005771       2.32543236       0.54577278        1 
H      -3.85812917       1.59092186      -0.08403543        1 
