27
Lattice="0.0 0.0 0.0 0.0 0.0 0.0 0.0 0.0 0.0" Properties=species:S:1:pos:R:3:Z:I:1 pbc="F F F"
C      -0.07437801      -0.96681614       0.19385623        6 
C      -0.85706455       0.17889234      -0.04782857        6 
C       1.42672618      -0.97327673       0.29706132        6 
C      -0.28656791       1.54753517       0.16288774        6 
O       1.98884458      -0.86902287      -0.91911499        8 
O       2.04340649      -1.20785176       1.30804093        8 
O       1.00720536       1.63876272      -0.19934870        8 
O      -0.89021390       2.46398938       0.67096278        8 
C       1.66972898       2.87505621       0.12349522        6 
C       3.42533022      -0.92205422      -0.95446036        6 
C      -0.67059638      -2.22673918       0.25619142        6 
C      -2.03549810      -2.36150511       0.03502049        6 
C      -2.80333161      -1.23809145      -0.24870660        6 
C      -2.24692458       0.04376193      -0.26800270        6 
H       1.18636377       3.71065478      -0.38414228        1 
H       3.84918309      -0.10345639      -0.37021598        1 
H      -3.86483513      -1.34950771      -0.44168035        1 
H       1.64907011       3.04532003       1.20077433        1 
H       2.69206190       2.75276808      -0.22706572        1 
H       3.69202548      -0.82179505      -2.00414409        1 
H       3.78491599      -1.87135585      -0.55420032        1 
H      -2.49729974      -3.34174846       0.07213804        1 
H      -0.05779368      -3.09659159       0.46027850        1 
C      -3.15917469       1.21871117      -0.52971072        6 
H      -2.71147799       1.94557066      -1.20923551        1 
H      -3.38349315       1.75281452       0.39611780        1 
H      -4.09702799       0.87025769      -0.96652547        1 
