27
Lattice="0.0 0.0 0.0 0.0 0.0 0.0 0.0 0.0 0.0" Properties=species:S:1:pos:R:3:Z:I:1 pbc="F F F"
C      -0.15217449      -1.18815146      -0.11440255        6 
C      -0.73768609       0.07522323       0.07412406        6 
C       1.31429645      -1.45999047      -0.01223187        6 
C       0.07344111       1.32519143       0.28402479        6 
O       2.06188665      -0.34172810      -0.05535436        8 
O       1.78758299      -2.56495864       0.12316523        8 
O       0.41636990       1.87724920      -0.89297333        8 
O       0.29831213       1.82417894       1.35861057        8 
C       1.19892210       3.08222475      -0.81644235        6 
C       3.47775518      -0.51788667       0.12866488        6 
C      -0.97026611      -2.30777518      -0.30862607        6 
C      -2.34987309      -2.17162303      -0.33637139        6 
C      -2.92370714      -0.91747115      -0.14353025        6 
C      -2.13697188       0.21730902       0.06582249        6 
H       0.65651705       3.85972499      -0.27633331        1 
H       3.67882800      -0.99155713       1.09037620        1 
H      -4.00347854      -0.81209841      -0.15507739        1 
H       2.14383721       2.88443089      -0.30740832        1 
H       1.37438164       3.37974273      -1.84769672        1 
H       3.89953329       0.48401810       0.09873924        1 
H       3.89032261      -1.13449150      -0.67096606        1 
H      -2.97962053      -3.03926745      -0.49643048        1 
H      -0.50051266      -3.27567695      -0.42629966        1 
C      -2.78534608       1.56438106       0.28027205        6 
H      -2.44353863       2.29153799      -0.46226269        1 
H      -2.54157981       1.96463178       1.26759326        1 
H      -3.87067188       1.48833494       0.20051064        1 
