27
Lattice="0.0 0.0 0.0 0.0 0.0 0.0 0.0 0.0 0.0" Properties=species:S:1:pos:R:3:Z:I:1 pbc="F F F"
C       0.10588023      -0.94230065      -0.12070372        6 
C      -0.90046988       0.02997875      -0.01104717        6 
C       1.53604930      -0.55163580      -0.33451865        6 
C      -0.55166186       1.48192002      -0.12612855        6 
O       2.34029678      -1.12296630       0.58137866        8 
O       1.93504275       0.11961875      -1.25586837        8 
O       0.43231661       1.81687771       0.73168156        8 
O      -1.07148869       2.25718453      -0.89036771        8 
C       0.97166694       3.14431353       0.58215418        6 
C       3.75172327      -0.88933321       0.41047077        6 
C      -0.21718325      -2.29847679      -0.05647860        6 
C      -1.54526494      -2.68416303       0.08423220        6 
C      -2.54281532      -1.71914866       0.18295516        6 
C      -2.24684609      -0.35371378       0.13228205        6 
H       1.40160897       3.25815363      -0.41408364        1 
H       4.09031755      -1.29306163      -0.54516288        1 
H      -3.57580128      -2.02719466       0.30411230        1 
H       0.19222931       3.89253514       0.73113967        1 
H       1.74036099       3.23107061       1.34652387        1 
H       4.23131190      -1.40518417       1.23902449        1 
H       3.96715165       0.17940048       0.44423433        1 
H      -1.80343347      -3.73639107       0.12390505        1 
H       0.56823063      -3.04087913      -0.12302146        1 
C      -3.36288723       0.65745722       0.23748068        6 
H      -3.51970860       1.16387705      -0.71758603        1 
H      -3.13936468       1.43292107       0.97417578        1 
H      -4.29375439       0.16878612       0.53027701        1 
