27
Lattice="0.0 0.0 0.0 0.0 0.0 0.0 0.0 0.0 0.0" Properties=species:S:1:pos:R:3:Z:I:1 pbc="F F F"
C       0.55342197      -0.88705662       0.08817657        6 
C      -0.67491703      -0.20672330       0.13514633        6 
C       1.87956282      -0.21949445       0.32573716        6 
C      -0.69866798       1.28696862       0.28434864        6 
O       2.62609157      -0.24003732      -0.80228313        8 
O       2.25845933       0.23205294       1.37317027        8 
O      -1.41491288       1.85302985      -0.71554432        8 
O      -0.15009532       1.92383409       1.14630196        8 
C      -1.53643278       3.28639051      -0.66757641        6 
C       3.95054246       0.31545337      -0.68466116        6 
C       0.58035657      -2.26512750      -0.13764867        6 
C      -0.60700528      -2.97522160      -0.26115096        6 
C      -1.82315371      -2.30712425      -0.17313919        6 
C      -1.88290446      -0.92290822       0.00692682        6 
H      -2.03347767       3.59652590       0.25323450        1 
H       3.89762228       1.35951041      -0.37321808        1 
H      -2.74952347      -2.86619892      -0.25120441        1 
H      -0.55254147       3.75492778      -0.71799982        1 
H      -2.13405330       3.55449707      -1.53601508        1 
H       4.38853884       0.22979144      -1.67651266        1 
H       4.53530137      -0.24706854       0.04514503        1 
H      -0.58530209      -4.04763977      -0.41840380        1 
H       1.53322562      -2.77614664      -0.20257298        1 
C      -3.23722321      -0.25488519       0.07779732        6 
H      -3.47889201       0.24596731      -0.86248355        1 
H      -3.28167225       0.49814242       0.86777170        1 
H      -4.01192325      -0.99716773       0.27887161        1 
