27
Lattice="0.0 0.0 0.0 0.0 0.0 0.0 0.0 0.0 0.0" Properties=species:S:1:pos:R:3:Z:I:1 pbc="F F F"
C       0.11697457      -0.87826635       0.03565619        6 
C      -0.90071400       0.10249139      -0.06029495        6 
C       1.54888791      -0.62554341      -0.34509131        6 
C      -0.58057115       1.56174221       0.06191366        6 
O       2.39809882      -1.16281431       0.55618513        8 
O       1.90324905      -0.09189937      -1.36560408        8 
O       0.72871337       1.78318981       0.28364934        8 
O      -1.39713894       2.45562362       0.09788541        8 
C       1.12728702       3.15283470       0.44306316        6 
C       3.79551839      -1.08352901       0.22158085        6 
C      -0.21186047      -2.21909942       0.22941884        6 
C      -1.54469281      -2.61339187       0.28113844        6 
C      -2.54447730      -1.66665215       0.12191386        6 
C      -2.25691219      -0.30307766      -0.03093568        6 
H       0.86484968       3.73104982      -0.44391739        1 
H       3.99223475      -1.60028865      -0.71933121        1 
H      -3.58283785      -1.97925150       0.13431844        1 
H       0.64432084       3.59323143       1.31699269        1 
H       2.20677089       3.12349773       0.57371295        1 
H       4.31787635      -1.56813514       1.04347309        1 
H       4.10585328      -0.04169520       0.12939931        1 
H      -1.79912845      -3.65755875       0.42443706        1 
H       0.58020734      -2.95292974       0.30590485        1 
C      -3.43011212       0.64206266      -0.14227637        6 
H      -3.34052718       1.30098995      -1.00599965        1 
H      -3.50483170       1.29365930       0.73078233        1 
H      -4.35489679       0.06803382      -0.22873966        1 
