27
Lattice="0.0 0.0 0.0 0.0 0.0 0.0 0.0 0.0 0.0" Properties=species:S:1:pos:R:3:Z:I:1 pbc="F F F"
C      -0.23547238      -1.08859769       0.08565407        6 
C      -0.85252098       0.16680126      -0.01073455        6 
C       1.24946969      -1.22875992       0.23952542        6 
C      -0.00948451       1.39419703      -0.18170755        6 
O       1.89646191      -0.79752851      -0.86182646        8 
O       1.79946021      -1.65048905       1.22541285        8 
O       0.82361820       1.55952431       0.86485596        8 
O      -0.02746321       2.11527302      -1.14830288        8 
C       1.77938626       2.63032824       0.75238420        6 
C       3.33465093      -0.84120272      -0.80750979        6 
C      -1.01031063      -2.24755706       0.15294026        6 
C      -2.39516036      -2.15691837       0.08634099        6 
C      -3.00550935      -0.91009427      -0.02219518        6 
C      -2.25405355       0.26598690      -0.08141436        6 
H       2.39807172       2.49063013      -0.13563289        1 
H       3.70250031      -0.22971902       0.01803906        1 
H      -4.08749492      -0.84389833      -0.06288252        1 
H       1.26940494       3.59237299       0.68630145        1 
H       2.38098217       2.57524627       1.65661632        1 
H       3.67143998      -0.44505464      -1.76263312        1 
H       3.67856278      -1.86778161      -0.67336523        1 
H      -3.00047248      -3.05529474       0.12762713        1 
H      -0.52406116      -3.20987151       0.25855128        1 
C      -2.94589554       1.60103554      -0.21558282        6 
H      -2.75364068       2.04130146      -1.19670870        1 
H      -2.59278002       2.31525989       0.53322797        1 
H      -4.02409406       1.48780539      -0.09094769        1 
