27
Lattice="0.0 0.0 0.0 0.0 0.0 0.0 0.0 0.0 0.0" Properties=species:S:1:pos:R:3:Z:I:1 pbc="F F F"
C       0.23276907      -0.87440410      -0.03235266        6 
C      -0.88807875      -0.02167661       0.08296930        6 
C       1.60819230      -0.38779838       0.30774179        6 
C      -0.72460189       1.46757226       0.06203814        6 
O       2.55987841      -1.08758047      -0.34655008        8 
O       1.85564586       0.48584713       1.10382408        8 
O       0.28892089       1.83149813      -0.74928448        8 
O      -1.47695911       2.26211514       0.57555123        8 
C       0.59453526       3.23475795      -0.78821289        6 
C       3.92053824      -0.75519118      -0.01844466        6 
C       0.05629852      -2.24292410      -0.23597847        6 
C      -1.22666898      -2.77506101      -0.31538020        6 
C      -2.32750251      -1.94233986      -0.17361754        6 
C      -2.18965834      -0.56032364       0.01854926        6 
H      -0.27928552       3.81137787      -1.09436567        1 
H       4.12484161       0.29024237      -0.25366008        1 
H      -3.32622054      -2.36207682      -0.22641343        1 
H       0.92706562       3.57008663       0.19567664        1 
H       1.39646595       3.33548008      -1.51623380        1 
H       4.53395750      -1.41262331      -0.63065340        1 
H       4.11076748      -0.92739459       1.04222547        1 
H      -1.36561849      -3.83863989      -0.47325729        1 
H       0.92434079      -2.88401391      -0.30680018        1 
C      -3.44329483       0.27638807       0.11950721        6 
H      -3.45175903       1.08824956      -0.61101916        1 
H      -3.52705836       0.74575241       1.10085392        1 
H      -4.32222172      -0.34864868      -0.04902697        1 
