27
Lattice="0.0 0.0 0.0 0.0 0.0 0.0 0.0 0.0 0.0" Properties=species:S:1:pos:R:3:Z:I:1 pbc="F F F"
C      -0.13373050      -1.02208403      -0.26226748        6 
C      -0.76060195       0.19798055       0.10256543        6 
C       1.32249057      -1.32845161      -0.03402140        6 
C      -0.03985874       1.50534594      -0.03958944        6 
O       1.94775648      -0.40048032       0.71404356        8 
O       1.83558342      -2.38827410      -0.31549660        8 
O       0.95722121       1.41266447      -0.94633410        8 
O      -0.40305229       2.56775522       0.41240307        8 
C       1.69094692       2.61825118      -1.20383596        6 
C       3.30013766      -0.70566609       1.09316407        6 
C      -0.90667842      -2.15049422      -0.52887652        6 
C      -2.29232896      -2.09746852      -0.42278436        6 
C      -2.89967617      -0.92891728       0.00986987        6 
C      -2.16356303       0.23795476       0.26589162        6 
H       1.03016753       3.39723943      -1.58738911        1 
H       3.33429323      -1.62541089       1.67925633        1 
H      -3.97668773      -0.89912255       0.13347272        1 
H       2.17230651       2.97458880      -0.29115544        1 
H       2.43652728       2.34795774      -1.94866930        1 
H       3.62937788       0.14226049       1.68970284        1 
H       3.92858287      -0.82195723       0.20878964        1 
H      -2.88974455      -2.97590836      -0.63922456        1 
H      -0.39960501      -3.07543178      -0.77087180        1 
C      -2.93021266       1.47649138       0.66634910        6 
H      -2.81434594       2.27862472      -0.06583975        1 
H      -2.57724517       1.87847244       1.61651127        1 
H      -3.99209284       1.23948718       0.75581153        1 
