27
Lattice="0.0 0.0 0.0 0.0 0.0 0.0 0.0 0.0 0.0" Properties=species:S:1:pos:R:3:Z:I:1 pbc="F F F"
C       0.72139165      -0.72337270      -0.03672087        6 
C      -0.63169278      -0.32246054      -0.01628546        6 
C       1.81032932       0.28304930       0.17226270        6 
C      -0.97344439       1.10816402      -0.32820562        6 
O       3.01073644      -0.18829311      -0.22989693        8 
O       1.65828237       1.37695124       0.65910856        8 
O      -1.92413245       1.59644592       0.49212500        8 
O      -0.45147102       1.75018736      -1.20446711        8 
C      -2.29270298       2.97111401       0.27188821        6 
C       4.12824037       0.69509543      -0.03126645        6 
C       1.04766778      -2.08030642      -0.01132892        6 
C       0.04260060      -3.04104027       0.01970191        6 
C      -1.28750820      -2.64539332       0.04253359        6 
C      -1.65211463      -1.29272791       0.01179641        6 
H      -1.42158547       3.61647336       0.39058599        1 
H       3.98818295       1.61703376      -0.59757614        1 
H      -2.07016870      -3.39638321       0.06388295        1 
H      -2.70366008       3.10135427      -0.73069276        1 
H      -3.04362596       3.19337264       1.02682100        1 
H       4.99572653       0.14910557      -0.39552940        1 
H       4.24102936       0.93698327       1.02677525        1 
H       0.29773114      -4.09454373       0.03529762        1 
H       2.08843655      -2.37329823       0.00373821        1 
C      -3.12433889      -0.94632846      -0.03024094        6 
H      -3.36419879      -0.29602937      -0.87533072        1 
H      -3.43502494      -0.42166517       0.87476563        1 
H      -3.72116679      -1.85480192      -0.12678561        1 
