27
Lattice="0.0 0.0 0.0 0.0 0.0 0.0 0.0 0.0 0.0" Properties=species:S:1:pos:R:3:Z:I:1 pbc="F F F"
C       0.41151839      -0.74853934       0.19527694        6 
C      -0.82359197      -0.12053418      -0.12505322        6 
C       1.71413336      -0.11101317      -0.20942245        6 
C      -0.97862409       1.37423860      -0.06574255        6 
O       2.76403000      -0.93496716       0.02901203        8 
O       1.85690431       0.98667637      -0.68926389        8 
O      -0.11542539       1.91362709       0.81393252        8 
O      -1.89871554       2.00241223      -0.54000202        8 
C      -0.17405051       3.33967106       0.96275431        6 
C       4.05367227      -0.42924359      -0.35249972        6 
C       0.43166961      -2.10162390       0.53714312        6 
C      -0.74614582      -2.84112468       0.56795031        6 
C      -1.93681053      -2.24656519       0.18388984        6 
C      -2.00962135      -0.88662241      -0.15591230        6 
H       0.06331917       3.82608201       0.01501551        1 
H       4.08399306      -0.23033015      -1.42495072        1 
H      -2.84776490      -2.83493676       0.16541522        1 
H      -1.16532334       3.65372195       1.29370041        1 
H       0.57709826       3.58151137       1.71135137        1 
H       4.76026694      -1.21308514      -0.08803234        1 
H       4.27916766       0.49093840       0.18864064        1 
H      -0.72461209      -3.88772409       0.84979881        1 
H       1.37934391      -2.57918208       0.73917170        1 
C      -3.36969274      -0.32611354      -0.50266060        6 
H      -3.37536749       0.12558342      -1.49497401        1 
H      -3.67462564       0.46029696       0.19118544        1 
H      -4.11486054      -1.12342770      -0.47240559        1 
