27
Lattice="0.0 0.0 0.0 0.0 0.0 0.0 0.0 0.0 0.0" Properties=species:S:1:pos:R:3:Z:I:1 pbc="F F F"
C       0.50935589      -0.96016384       0.00752598        6 
C      -0.67973217      -0.21266108      -0.09554422        6 
C       1.86949192      -0.38255753      -0.28519702        6 
C      -0.54021308       1.27642930      -0.16451564        6 
O       2.51413974      -0.04655122       0.84761608        8 
O       2.32967138      -0.27728959      -1.39119296        8 
O      -1.56778230       1.91868292       0.43016520        8 
O       0.39519288       1.86132229      -0.65796991        8 
C      -1.50079047       3.35630296       0.41648242        6 
C       3.81772343       0.54350918       0.67045044        6 
C       0.46319650      -2.33565920       0.22784816        6 
C      -0.76313937      -2.98210273       0.32205312        6 
C      -1.93811944      -2.25624769       0.16938750        6 
C      -1.92938214      -0.87174316      -0.02865601        6 
H      -0.60500495       3.70010301       0.93546779        1 
H       4.48774082      -0.15622924       0.16845011        1 
H      -2.89203041      -2.77106294       0.20753749        1 
H      -1.48511655       3.72718244      -0.60943955        1 
H      -2.39721443       3.69091613       0.93385157        1 
H       4.17393890       0.76346989       1.67420356        1 
H       3.73578325       1.45558205       0.07794189        1 
H      -0.80363015      -4.05224891       0.49139958        1 
H       1.38646513      -2.89757426       0.30464864        1 
C      -3.26294916      -0.17779454      -0.19382819        6 
H      -3.25049581       0.54697741      -1.00907629        1 
H      -3.54516677       0.36383505       0.71123391        1 
H      -4.03750403      -0.91711471      -0.40661246        1 
