27
Lattice="0.0 0.0 0.0 0.0 0.0 0.0 0.0 0.0 0.0" Properties=species:S:1:pos:R:3:Z:I:1 pbc="F F F"
C       0.69622923      -0.71106433       0.04127908        6 
C      -0.65001554      -0.29079889      -0.08309396        6 
C       1.86795928       0.16235150      -0.32001871        6 
C      -0.89720848       1.18470094       0.04307102        6 
O       2.79860173       0.15764800       0.65619176        8 
O       1.99604681       0.72495634      -1.37570314        8 
O      -2.20469963       1.49789859       0.17365318        8 
O      -0.03395085       2.02969679       0.04690976        8 
C      -2.50210641       2.89758038       0.32060548        6 
C       3.99447035       0.91097992       0.37887237        6 
C       1.00357652      -2.05570281       0.23683373        6 
C      -0.01068241      -3.00652183       0.26721628        6 
C      -1.32519941      -2.60957536       0.07572735        6 
C      -1.68080696      -1.26237086      -0.08129695        6 
H      -2.01182876       3.30148754       1.20748853        1 
H       4.50334967       0.50860739      -0.49867313        1 
H      -2.11116249      -3.35688316       0.06550005        1 
H      -2.16802749       3.45257182      -0.55698826        1 
H      -3.58410063       2.95149065       0.42186840        1 
H       4.61506047       0.80459916       1.26584392        1 
H       3.74723971       1.95866313       0.20291272        1 
H       0.22621215      -4.05405677       0.41569975        1 
H       2.03972782      -2.35411231       0.33443629        1 
C      -3.15659831      -0.96915680      -0.24414853        6 
H      -3.35016903      -0.29096355      -1.07495073        1 
H      -3.57322651      -0.49987983       0.64930502        1 
H      -3.69359246      -1.90239230      -0.42413398        1 
