27
Lattice="0.0 0.0 0.0 0.0 0.0 0.0 0.0 0.0 0.0" Properties=species:S:1:pos:R:3:Z:I:1 pbc="F F F"
C       0.54199221      -0.83774811       0.22428054        6 
C      -0.70114687      -0.27501669      -0.08878461        6 
C       1.76410448       0.02360322       0.22611493        6 
C      -0.81689016       1.20237234      -0.34525404        6 
O       2.75581376      -0.53461301      -0.49377929        8 
O       1.87828626       1.06058031       0.83629426        8 
O      -1.22155597       1.85397094       0.75413319        8 
O      -0.62997501       1.72380146      -1.41796957        8 
C      -1.32789407       3.28646906       0.63481294        6 
C       3.99999300       0.19172263      -0.52074142        6 
C       0.65005658      -2.21322073       0.44553345        6 
C      -0.48796182      -3.00934006       0.40362870        6 
C      -1.72296159      -2.44337787       0.09594749        6 
C      -1.85301519      -1.07560420      -0.15733519        6 
H      -0.35899558       3.70911885       0.36709210        1 
H       3.84668760       1.18817888      -0.93651527        1 
H      -2.60495291      -3.07326433       0.04835479        1 
H      -2.06560103       3.55183961      -0.12411201        1 
H      -1.64062789       3.63407315       1.61651987        1 
H       4.66005203      -0.39337222      -1.15687026        1 
H       4.41044464       0.27949945       0.48646988        1 
H      -0.41286147      -4.07361059       0.59542429        1 
H       1.62021296      -2.64785964       0.64968129        1 
C      -3.19693023      -0.47989032      -0.50123649        6 
H      -3.16707645       0.02908039      -1.46878861        1 
H      -3.50484228       0.25592998       0.24722398        1 
H      -3.96476087      -1.25353374      -0.55021974        1 
