27
Lattice="0.0 0.0 0.0 0.0 0.0 0.0 0.0 0.0 0.0" Properties=species:S:1:pos:R:3:Z:I:1 pbc="F F F"
C       0.25095052      -0.90136782       0.21395482        6 
C      -0.84889949      -0.06015379      -0.02957838        6 
C       1.67566667      -0.42243562       0.29505371        6 
C      -0.68636761       1.41121736      -0.28114423        6 
O       2.39186349      -0.95071464      -0.72380461        8 
O       2.15224951       0.27920821       1.14903844        8 
O      -0.02914903       2.02118469       0.71255530        8 
O      -1.13280267       1.98637617      -1.24744324        8 
C       0.22825947       3.42727509       0.54672306        6 
C       3.79810183      -0.63920769      -0.73319061        6 
C       0.05599906      -2.27689868       0.36722467        6 
C      -1.22557749      -2.80992624       0.33109971        6 
C      -2.31400024      -1.97512232       0.10196493        6 
C      -2.14947095      -0.60303969      -0.10105440        6 
H       0.78365233       3.60624813      -0.37508824        1 
H       3.94928113       0.43886300      -0.80460710        1 
H      -3.31457129      -2.39255947       0.07022315        1 
H      -0.70900946       3.98538789       0.51577605        1 
H       0.81963124       3.71187027       1.41343976        1 
H       4.19845635      -1.14162168      -1.61077385        1 
H       4.27653692      -1.00910283       0.17519378        1 
H      -1.37559950      -3.87405141       0.47396786        1 
H       0.91262294      -2.92189159       0.51975103        1 
C      -3.36404205       0.25217685      -0.37784710        6 
H      -3.37013321       0.59936775      -1.41309121        1 
H      -3.38646552       1.14234338       0.25531480        1 
H      -4.27676257      -0.31753479      -0.19500914        1 
