27
Lattice="0.0 0.0 0.0 0.0 0.0 0.0 0.0 0.0 0.0" Properties=species:S:1:pos:R:3:Z:I:1 pbc="F F F"
C      -0.13337261      -1.21750414       0.01330372        6 
C      -0.72768885       0.05442123       0.08724278        6 
C       1.34105405      -1.46506734      -0.00883529        6 
C       0.06702388       1.30863681       0.33462748        6 
O       2.06406546      -0.33451339       0.07733663        8 
O       1.84154940      -2.56101429      -0.12153514        8 
O       0.30506448       1.96871231      -0.81362717        8 
O       0.39295958       1.70406729       1.42499251        8 
C       1.05545373       3.19122681      -0.69014295        6 
C       3.49352833      -0.49009985       0.07132737        6 
C      -0.94376639      -2.35238758      -0.11209647        6 
C      -2.32397251      -2.22850664      -0.16020076        6 
C      -2.90606895      -0.96544105      -0.09262965        6 
C      -2.12706387       0.18693829       0.03303295        6 
H       0.51748499       3.90980598      -0.06980099        1 
H       3.80942079      -1.11888231       0.90461007        1 
H      -3.98579012      -0.86727336      -0.13418503        1 
H       2.03092458       2.99157792      -0.24408749        1 
H       1.16662830       3.56654335      -1.70485764        1 
H       3.89295917       0.51578226       0.17766540        1 
H       3.82242848      -0.94075374      -0.86618602        1 
H      -2.94705630      -3.11048908      -0.25425309        1 
H      -0.46510250      -3.32078122      -0.17681595        1 
C      -2.78541900       1.54378670       0.12032219        6 
H      -2.48221926       2.18378953      -0.71287359        1 
H      -2.51200437       2.05694135       1.04635299        1 
H      -3.87190928       1.44904521       0.09536758        1 
