27
Lattice="0.0 0.0 0.0 0.0 0.0 0.0 0.0 0.0 0.0" Properties=species:S:1:pos:R:3:Z:I:1 pbc="F F F"
C       0.78503583       0.62096158       0.20757177        6 
C      -0.58222940       0.30364549      -0.01068980        6 
C       1.85787344      -0.42041156       0.00581050        6 
C      -1.10120719      -1.07368420       0.31911636        6 
O       3.06657799       0.16427659      -0.20499512        8 
O       1.72596592      -1.61712707       0.02594225        8 
O      -2.06803357      -1.47274058      -0.54067695        8 
O      -0.67813986      -1.77433961       1.19956524        8 
C      -2.60800985      -2.78632038      -0.30717108        6 
C       4.16476923      -0.74416374      -0.39226489        6 
C       1.18032794       1.95782577       0.28579397        6 
C       0.24555198       2.98099834       0.18655534        6 
C      -1.08374734       2.67286639      -0.05843950        6 
C      -1.52646641       1.34656963      -0.14536694        6 
H      -1.82073350      -3.53778764      -0.38149456        1 
H       4.29181434      -1.37772898       0.48707860        1 
H      -1.81053331       3.47179057      -0.15749997        1 
H      -3.06499323      -2.84360668       0.68233747        1 
H      -3.35607488      -2.93326088      -1.08344217        1 
H       5.03856970      -0.11374320      -0.54271373        1 
H       3.99240577      -1.37704926      -1.26429948        1 
H       0.55940831       4.01464465       0.27456307        1 
H       2.22937225       2.18704435       0.40187991        1 
C      -3.01145089       1.11470450      -0.33079267        6 
H      -3.42908643       0.48757358       0.46015299        1 
H      -3.22303209       0.61337869      -1.27605481        1 
H      -3.54106031       2.06888833      -0.31753024        1 
