27
Lattice="0.0 0.0 0.0 0.0 0.0 0.0 0.0 0.0 0.0" Properties=species:S:1:pos:R:3:Z:I:1 pbc="F F F"
C       0.62099247      -0.81287536       0.05986826        6 
C      -0.69371737      -0.31918351       0.07045444        6 
C       1.76530001       0.14321410       0.06358692        6 
C      -0.99304851       1.13486961       0.32792631        6 
O       2.95162252      -0.48025688      -0.10390818        8 
O       1.66693237       1.33977222       0.20979733        8 
O      -1.21253018       1.80025320      -0.81926373        8 
O      -1.08319968       1.61704734       1.42769528        8 
C      -1.46175336       3.21288424      -0.68336276        6 
C       4.11358525       0.36698780      -0.09138437        6 
C       0.84335545      -2.19111800      -0.05184016        6 
C      -0.23111823      -3.06567767      -0.13814141        6 
C      -1.53157486      -2.56878460      -0.13178977        6 
C      -1.78563605      -1.19920392      -0.02300535        6 
H      -2.34713816       3.38788102      -0.07004297        1 
H       4.05649845       1.10506962      -0.89281825        1 
H      -2.36921737      -3.25447592      -0.20639076        1 
H      -0.59913634       3.69780839      -0.22455427        1 
H      -1.61641325       3.57785723      -1.69623731        1 
H       4.95844239      -0.30093320      -0.24412572        1 
H       4.19836150       0.88284242       0.86625827        1 
H      -0.05857108      -4.13277370      -0.21833125        1 
H       1.85864672      -2.56130450      -0.07488829        1 
C      -3.20624063      -0.68689574       0.01117629        6 
H      -3.37852059       0.05524178      -0.77252170        1 
H      -3.42864375      -0.20960047       0.97005591        1 
H      -3.91638355      -1.50288322      -0.13164990        1 
