27
Lattice="0.0 0.0 0.0 0.0 0.0 0.0 0.0 0.0 0.0" Properties=species:S:1:pos:R:3:Z:I:1 pbc="F F F"
C       0.51444054      -0.99188200      -0.04312743        6 
C      -0.67412635      -0.23357687      -0.05415896        6 
C       1.87791137      -0.39168159      -0.26519956        6 
C      -0.51351553       1.24981190      -0.15386789        6 
O       2.40731117       0.05756511       0.88596618        8 
O       2.44491496      -0.39462963      -1.32748937        8 
O      -1.61369077       1.93870036       0.20871822        8 
O       0.50789313       1.79904052      -0.50088239        8 
C      -1.50873470       3.37237347       0.14051082        6 
C       3.68367466       0.71442174       0.76793646        6 
C       0.47427575      -2.37750248       0.08897568        6 
C      -0.74853147      -3.02575237       0.20867077        6 
C      -1.92520504      -2.28823777       0.17218847        6 
C      -1.92405729      -0.89515988       0.04137234        6 
H      -0.72707043       3.72881491       0.81280590        1 
H       4.42178607       0.04198647       0.32848408        1 
H      -2.87741161      -2.80233549       0.24284591        1 
H      -1.27899263       3.68999170      -0.87743657        1 
H      -2.48220254       3.74602464       0.45065670        1 
H       3.96502940       0.98503615       1.78314012        1 
H       3.58265862       1.60358932       0.14381335        1 
H      -0.78638304      -4.10407081       0.31551864        1 
H       1.39850408      -2.94276173       0.08619526        1 
C      -3.26934765      -0.20616043      -0.00977588        6 
H      -3.35154897       0.46654044      -0.86463739        1 
H      -3.44398758       0.39686522       0.88320038        1 
H      -4.06133655      -0.95346680      -0.08291631        1 
