27
Lattice="0.0 0.0 0.0 0.0 0.0 0.0 0.0 0.0 0.0" Properties=species:S:1:pos:R:3:Z:I:1 pbc="F F F"
C       0.15042799      -1.00643029       0.24698353        6 
C      -0.80157849      -0.02639083      -0.05184174        6 
C       1.61318087      -0.67553592       0.33961139        6 
C      -0.37500253       1.39105232      -0.30845066        6 
O       2.24280286      -1.00278872      -0.80496921        8 
O       2.16623247      -0.21426793       1.30648153        8 
O      -0.12807689       2.03987312       0.83990288        8 
O      -0.27181967       1.88688551      -1.40466399        8 
C       0.34750967       3.39521262       0.71828178        6 
C       3.66512054      -0.76963320      -0.83749284        6 
C      -0.24489159      -2.33178320       0.43629677        6 
C      -1.59021944      -2.66935496       0.34727624        6 
C      -2.53508196      -1.69140393       0.04801186        6 
C      -2.16169844      -0.36272225      -0.16442496        6 
H       1.26755446       3.41993000       0.13317550        1 
H       3.88036810       0.28847777      -0.68310723        1 
H      -3.58284361      -1.96246908      -0.02636450        1 
H      -0.40522132       4.02076737       0.23610209        1 
H       0.53152093       3.72644662       1.73722898        1 
H       3.98493754      -1.08581839      -1.82751875        1 
H       4.16396110      -1.35558550      -0.06394953        1 
H      -1.90332046      -3.69534938       0.50368093        1 
H       0.49842030      -3.08996733       0.65239593        1 
C      -3.19504923       0.68018481      -0.51427796        6 
H      -3.03146625       1.07047230      -1.52237458        1 
H      -3.15464855       1.52924909       0.17459319        1 
H      -4.20096068       0.25964366      -0.46963714        1 
