27
Lattice="0.0 0.0 0.0 0.0 0.0 0.0 0.0 0.0 0.0" Properties=species:S:1:pos:R:3:Z:I:1 pbc="F F F"
C      -0.13334827      -0.98842741      -0.19270877        6 
C      -0.84841108       0.21102286       0.02072192        6 
C       1.36598527      -1.09887215      -0.23617599        6 
C      -0.16625173       1.53906403      -0.05810355        6 
O       1.89487708      -0.90533185       0.98753086        8 
O       2.00017147      -1.44889740      -1.20001018        8 
O       1.14538161       1.42268150      -0.35263055        8 
O      -0.70750919       2.61694739       0.04454575        8 
C       1.87588486       2.64704120      -0.52564157        6 
C       3.32586324      -1.01431208       1.07245766        6 
C      -0.80268601      -2.20512117      -0.30389176        6 
C      -2.18483840      -2.25318059      -0.16741368        6 
C      -2.89150543      -1.08480861       0.08133433        6 
C      -2.25788896       0.16042511       0.16791121        6 
H       1.43273564       3.24477995      -1.32311579        1 
H       3.65474949      -2.00855062       0.76601491        1 
H      -3.96842472      -1.12847950       0.19987536        1 
H       1.87598448       3.22423959       0.40015795        1 
H       2.88581992       2.34280312      -0.79148226        1 
H       3.56914215      -0.83488632       2.11735285        1 
H       3.80031896      -0.26725636       0.43355461        1 
H      -2.70759152      -3.19972138      -0.24766948        1 
H      -0.23455160      -3.10959541      -0.48485624        1 
C      -3.12945299       1.37094752       0.40514867        6 
H      -3.09241622       2.06371137      -0.43750887        1 
H      -2.80612726       1.93762538       1.27912475        1 
H      -4.16376066       1.05447024       0.55333350        1 
