27
Lattice="0.0 0.0 0.0 0.0 0.0 0.0 0.0 0.0 0.0" Properties=species:S:1:pos:R:3:Z:I:1 pbc="F F F"
C       0.76998540       0.66268835       0.18971218        6 
C      -0.59165836       0.31886494       0.00866617        6 
C       1.84516104      -0.37783146       0.02850482        6 
C      -1.08560042      -1.06952229       0.32793146        6 
O       3.04773885       0.19701496      -0.22733211        8 
O       1.71288387      -1.57244261       0.11698551        8 
O      -1.92713159      -1.53373345      -0.62363356        8 
O      -0.75052746      -1.71171893       1.28717582        8 
C      -2.44225282      -2.86115771      -0.40895954        6 
C       4.14781627      -0.71656607      -0.37814171        6 
C       1.14232884       2.00895025       0.22248141        6 
C       0.18409362       3.00976488       0.12136423        6 
C      -1.14770469       2.67049373      -0.07305989        6 
C      -1.56200133       1.33451783      -0.12018179        6 
H      -1.62232468      -3.57555859      -0.32642792        1 
H       4.28777309      -1.30083820       0.53282214        1 
H      -1.89384182       3.45219661      -0.16671476        1 
H      -3.04173121      -2.89635633       0.50259048        1 
H      -3.05731146      -3.07739870      -1.27988557        1 
H       5.01708060      -0.09216653      -0.57295541        1 
H       3.96747083      -1.39604248      -1.21259670        1 
H       0.47953843       4.05127833       0.17288298        1 
H       2.18908812       2.26178694       0.30972362        1 
C      -3.04138092       1.04492735      -0.25914693        6 
H      -3.40430878       0.39131634       0.53826058        1 
H      -3.26332448       0.54699458      -1.20442090        1 
H      -3.61183114       1.97414299      -0.21420050        1 
