27
Lattice="0.0 0.0 0.0 0.0 0.0 0.0 0.0 0.0 0.0" Properties=species:S:1:pos:R:3:Z:I:1 pbc="F F F"
C       0.58467464      -0.92481030      -0.25739751        6 
C      -0.59419533      -0.22632845       0.08186152        6 
C       1.96460158      -0.32789934      -0.31590960        6 
C      -0.58882562       1.27429487      -0.01999979        6 
O       2.30851034       0.22371913       0.85374394        8 
O       2.72827617      -0.48977318      -1.23977559        8 
O      -1.74323173       1.72317748      -0.56433324        8 
O       0.31668010       2.01593720       0.27261901        8 
C      -1.84054945       3.14642868      -0.74921903        6 
C       3.61419676       0.82348613       0.91096852        6 
C       0.55213430      -2.30715318      -0.44508302        6 
C      -0.62457426      -3.01343492      -0.22914949        6 
C      -1.76510358      -2.33799173       0.18575624        6 
C      -1.78592801      -0.94601381       0.32378688        6 
H      -1.75884969       3.66413429       0.20787987        1 
H       4.38689122       0.08277087       0.69906386        1 
H      -2.67194784      -2.89588210       0.39416048        1 
H      -1.05164360       3.49854992      -1.41531460        1 
H      -2.81960479       3.31216287      -1.19355358        1 
H       3.71029524       1.20486220       1.92467952        1 
H       3.68141509       1.63778309       0.18826463        1 
H      -0.64645762      -4.08917522      -0.36196566        1 
H       1.46057419      -2.81863138      -0.73733400        1 
C      -3.08704146      -0.30304684       0.75231368        6 
H      -3.63670262       0.08727875      -0.10677482        1 
H      -2.93038105       0.52870268       1.44003460        1 
H      -3.71494995      -1.04349508       1.25221499        1 
