27
Lattice="0.0 0.0 0.0 0.0 0.0 0.0 0.0 0.0 0.0" Properties=species:S:1:pos:R:3:Z:I:1 pbc="F F F"
C       0.49658377      -0.91732760      -0.25539064        6 
C      -0.67905450      -0.24549835       0.09631873        6 
C       1.79304209      -0.16869565      -0.36428265        6 
C      -0.62752310       1.24236636       0.28481823        6 
O       2.59163706      -0.44120307       0.67918168        8 
O       2.10387589       0.53556647      -1.29443214        8 
O      -1.31937220       1.87740936      -0.67661797        8 
O      -0.05552981       1.80319419       1.18841692        8 
C      -1.32421267       3.31740546      -0.60688470        6 
C       3.87549714       0.21517779       0.68207691        6 
C       0.48191845      -2.29609430      -0.46523772        6 
C      -0.71306765      -2.99619768      -0.34105501        6 
C      -1.88059088      -2.32589919       0.01427574        6 
C      -1.89043150      -0.94540354       0.22961519        6 
H      -1.76833051       3.65174530       0.33193624        1 
H       4.43709930      -0.04151889      -0.21737999        1 
H      -2.80497868      -2.88246903       0.12793657        1 
H      -0.30554631       3.69916867      -0.68329840        1 
H      -1.92140545       3.64394293      -1.45494374        1 
H       4.38200918      -0.14986192       1.57224937        1 
H       3.74228005       1.29662699       0.73122733        1 
H      -0.73386917      -4.06701526      -0.50875995        1 
H       1.39882438      -2.81306147      -0.72131896        1 
C      -3.17348414      -0.24165623       0.60225369        6 
H      -3.54886709       0.35360667      -0.23445689        1 
H      -3.02788600       0.43729631       1.44681987        1 
H      -3.94300064      -0.96375280       0.88028265        1 
