27
Lattice="0.0 0.0 0.0 0.0 0.0 0.0 0.0 0.0 0.0" Properties=species:S:1:pos:R:3:Z:I:1 pbc="F F F"
C      -0.14137779      -1.10325735       0.22552085        6 
C      -0.75808993       0.12687195      -0.08664856        6 
C       1.32044577      -1.38649072       0.03613316        6 
C       0.00650239       1.41816499      -0.13784235        6 
O       2.05467911      -0.29179667      -0.23459612        8 
O       1.78363958      -2.50434584       0.00574480        8 
O       0.62333509       1.64482829       1.03777067        8 
O      -0.04016239       2.22378331      -1.03608860        8 
C       1.41672721       2.84011002       1.11126270        6 
C       3.43192319      -0.52385914      -0.57945644        6 
C      -0.93238658      -2.23134302       0.46440476        6 
C      -2.31644515      -2.14438125       0.41414910        6 
C      -2.91737034      -0.93811272       0.07240517        6 
C      -2.16114387       0.21115685      -0.18095994        6 
H       2.23773436       2.78845641       0.39330006        1 
H       3.96652968      -0.96219256       0.26446602        1 
H      -3.99849074      -0.87567451       0.00793616        1 
H       0.81008098       3.72178140       0.89994104        1 
H       1.80108275       2.87085993       2.12832155        1 
H       3.83584580       0.45581504      -0.82439392        1 
H       3.50106392      -1.19455212      -1.43674672        1 
H      -2.92502176      -3.01900120       0.61369389        1 
H      -0.43889397      -3.17530571       0.65546344        1 
C      -2.87212207       1.50063953      -0.52103884        6 
H      -2.60463117       1.84708830      -1.52069646        1 
H      -2.60893168       2.30355333       0.17302149        1 
H      -3.95305565       1.35840607      -0.47723340        1 
