27
Lattice="0.0 0.0 0.0 0.0 0.0 0.0 0.0 0.0 0.0" Properties=species:S:1:pos:R:3:Z:I:1 pbc="F F F"
C       0.57827813      -0.83419924       0.20776555        6 
C      -0.67766999      -0.29004744      -0.08681999        6 
C       1.77847718       0.05655442       0.25001496        6 
C      -0.80869795       1.18654575      -0.33570342        6 
O       2.78790380      -0.44566388      -0.48443245        8 
O       1.85907287       1.06897275       0.90495007        8 
O      -1.39621200       1.80333645       0.70079221        8 
O      -0.47531573       1.73735483      -1.35670348        8 
C      -1.55670295       3.23069665       0.57682108        6 
C       4.01157047       0.31575111      -0.47759325        6 
C       0.71511665      -2.20916817       0.41048757        6 
C      -0.40739592      -3.02735585       0.36101354        6 
C      -1.65489093      -2.48123004       0.06992458        6 
C      -1.81425719      -1.11190306      -0.15939383        6 
H      -0.58466349       3.70476552       0.43783837        1 
H       3.83171037       1.32215584      -0.85717471        1 
H      -2.52397881      -3.12815787       0.01424943        1 
H      -2.20283599       3.46813272      -0.26999431        1 
H      -2.01164288       3.55066003       1.51116055        1 
H       4.69052705      -0.22664109      -1.13132504        1 
H       4.41466340       0.37766059       0.53451670        1 
H      -0.30997325      -4.09299366       0.53452381        1 
H       1.69446059      -2.62646148       0.60706310        1 
C      -3.17556969      -0.54265943      -0.47950965        6 
H      -3.14587154       0.08423276      -1.37500907        1 
H      -3.54313777       0.07738648       0.34277924        1 
H      -3.89901463      -1.34086102      -0.65327308        1 
