27
Lattice="0.0 0.0 0.0 0.0 0.0 0.0 0.0 0.0 0.0" Properties=species:S:1:pos:R:3:Z:I:1 pbc="F F F"
C      -0.01480858      -1.23586621       0.10543627        6 
C      -0.72283237      -0.02049505       0.11470439        6 
C       1.47058975      -1.34452729      -0.05561192        6 
C      -0.05493169       1.30720136       0.35459299        6 
O       2.13677755      -0.28537606       0.43077395        8 
O       2.01271157      -2.27048467      -0.61502753        8 
O       0.02737069       2.02392693      -0.78510297        8 
O       0.34347684       1.69170329       1.42292785        8 
C       0.64814459       3.31866245      -0.66850331        6 
C       3.56331213      -0.29247743       0.24959832        6 
C      -0.71872283      -2.44384913       0.03222234        6 
C      -2.10516869      -2.45193741       0.01058772        6 
C      -2.80064459      -1.24619490       0.01373644        6 
C      -2.12998558      -0.02236673       0.06272610        6 
H       0.08602810       3.95123826       0.02032155        1 
H       4.00662901      -1.14657666       0.76351714        1 
H      -3.88506401      -1.25007334      -0.01747377        1 
H       1.67172049       3.21419791      -0.30618554        1 
H       0.63596700       3.73709121      -1.67236405        1 
H       3.91147120       0.64015668       0.68746534        1 
H       3.81343571      -0.34271861      -0.81134166        1 
H      -2.64440911      -3.39150652      -0.02535901        1 
H      -0.15610306      -3.36680536      -0.02391967        1 
C      -2.91554114       1.26808128       0.07561185        6 
H      -2.73738412       1.84840878      -0.83384209        1 
H      -2.63794962       1.89729317       0.92624850        1 
H      -3.98573978       1.06729269       0.14509476        1 
