27
Lattice="0.0 0.0 0.0 0.0 0.0 0.0 0.0 0.0 0.0" Properties=species:S:1:pos:R:3:Z:I:1 pbc="F F F"
C      -0.19936099      -1.03738552      -0.16804561        6 
C      -0.82358642       0.20979965       0.04710621        6 
C       1.28551435      -1.23947827      -0.14009188        6 
C      -0.03153911       1.47592993      -0.00979219        6 
O       1.83564311      -0.67374759       0.95410749        8 
O       1.90118738      -1.91107269      -0.93125437        8 
O       1.05355983       1.33781437      -0.80357225        8 
O      -0.34483896       2.53044974       0.49196900        8 
C       1.90676795       2.48708906      -0.92281599        6 
C       3.26159898      -0.80978941       1.07791653        6 
C      -0.95957812      -2.19588474      -0.30867174        6 
C      -2.34490799      -2.13167961      -0.20467329        6 
C      -2.96154743      -0.91182284       0.04036438        6 
C      -2.23000199       0.27678190       0.16131179        6 
H       1.34960583       3.33761645      -1.31772224        1 
H       3.54458059      -1.86273413       1.11701900        1 
H      -4.04178504      -0.86656898       0.12578518        1 
H       2.32498894       2.75288675       0.04991509        1 
H       2.69400761       2.19007832      -1.61216375        1 
H       3.52037926      -0.30780873       2.00745876        1 
H       3.76169008      -0.33602792       0.23103374        1 
H      -2.94092739      -3.03146519      -0.30791451        1 
H      -0.45670927      -3.13900930      -0.48280234        1 
C      -2.98914803       1.56299120       0.38421316        6 
H      -2.74510298       2.31611714      -0.36776473        1 
H      -2.74327911       2.00396265       1.35142219        1 
H      -4.06303874       1.37117025       0.34668995        1 
