27
Lattice="0.0 0.0 0.0 0.0 0.0 0.0 0.0 0.0 0.0" Properties=species:S:1:pos:R:3:Z:I:1 pbc="F F F"
C       0.76728712       0.64250339      -0.15746706        6 
C      -0.60052117       0.30239196       0.02894187        6 
C       1.84524676      -0.36896348       0.13327798        6 
C      -1.04544362      -1.09548250      -0.31976710        6 
O       3.08249073       0.15247601      -0.05783865        8 
O       1.67476028      -1.50970530       0.48194902        8 
O      -2.12887989      -1.48968354       0.38683029        8 
O      -0.47887983      -1.81565646      -1.10064479        8 
C      -2.59032093      -2.82739825       0.12481398        6 
C       4.17583528      -0.74773624       0.18912345        6 
C       1.14301738       1.98262731      -0.24555030        6 
C       0.18703116       2.99118182      -0.17993565        6 
C      -1.14141215       2.66183941       0.03369084        6 
C      -1.56689540       1.32740133       0.12116959        6 
H      -2.86844152      -2.93895952      -0.92455868        1 
H       4.17525054      -1.07369438       1.23066507        1 
H      -1.88392210       3.44914787       0.10586188        1 
H      -1.80988594      -3.55021246       0.36665244        1 
H      -3.45658936      -2.96558576       0.76851825        1 
H       5.07554034      -0.17859878      -0.03452501        1 
H       4.10174286      -1.62325202      -0.45777836        1 
H       0.48498076       4.02959538      -0.26776459        1 
H       2.19160851       2.22706432      -0.33487583        1 
C      -3.05407326       1.08215495       0.26601537        6 
H      -3.28496597       0.55497509       1.19229325        1 
H      -3.44840230       0.47227943      -0.54953046        1 
H      -3.58806908       2.03405971       0.26499847        1 
