27
Lattice="0.0 0.0 0.0 0.0 0.0 0.0 0.0 0.0 0.0" Properties=species:S:1:pos:R:3:Z:I:1 pbc="F F F"
C      -0.15237574      -1.19204038      -0.15061819        6 
C      -0.74074729       0.06165205       0.06752439        6 
C       1.30529215      -1.44536327       0.06830464        6 
C       0.09416585       1.28715792       0.31799609        6 
O       2.08157521      -0.46614796      -0.43557120        8 
O       1.73768588      -2.39496982       0.67635202        8 
O       0.37772579       1.91710714      -0.83445439        8 
O       0.39561150       1.70368116       1.40962569        8 
C       1.17281435       3.11108848      -0.71981712        6 
C       3.49021891      -0.57462146      -0.15696235        6 
C      -0.96164957      -2.30809142      -0.38769136        6 
C      -2.34009688      -2.16578805      -0.45733234        6 
C      -2.91879356      -0.91730667      -0.24020349        6 
C      -2.13816400       0.20928114       0.02741264        6 
H       0.65305062       3.86280992      -0.12357844        1 
H       3.66450195      -0.56519151       0.91988901        1 
H      -3.99791252      -0.81127493      -0.27625664        1 
H       2.13164137       2.88237954      -0.25165983        1 
H       1.31751437       3.46088998      -1.73931495        1 
H       3.94547574       0.29280463      -0.62946473        1 
H       3.89101808      -1.49693849      -0.57932589        1 
H      -2.96645418      -3.02698950      -0.65991797        1 
H      -0.49642526      -3.27882206      -0.50485843        1 
C      -2.78629858       1.55111256       0.26997147        6 
H      -2.46647831       2.28445921      -0.47635566        1 
H      -2.51994965       1.94532300       1.25417474        1 
H      -3.87308796       1.47140652       0.21863709        1 
