27
Lattice="0.0 0.0 0.0 0.0 0.0 0.0 0.0 0.0 0.0" Properties=species:S:1:pos:R:3:Z:I:1 pbc="F F F"
C       0.48624368      -1.00447770      -0.01180479        6 
C      -0.68021516      -0.21774233      -0.07896795        6 
C       1.86352714      -0.45057758      -0.26633897        6 
C      -0.48639904       1.26224797      -0.17708936        6 
O       2.42991325      -0.00487502       0.86932710        8 
O       2.39952829      -0.45752147      -1.34364705        8 
O      -1.51240424       1.96433937       0.34534473        8 
O       0.49534379       1.79385119      -0.64248310        8 
C      -1.38306709       3.39694913       0.29317633        6 
C       3.72967398       0.59968381       0.72072124        6 
C       0.40301409      -2.38285011       0.17250073        6 
C      -0.84060861      -2.99290388       0.27987028        6 
C      -1.99529865      -2.22692220       0.17539653        6 
C      -1.94915485      -0.83976370       0.00156900        6 
H      -0.50331343       3.71949036       0.85163805        1 
H       4.43495949      -0.11199204       0.28913134        1 
H      -2.96356895      -2.71254537       0.22829232        1 
H      -1.29529121       3.73402273      -0.74060589        1 
H      -2.29132968       3.78442270       0.74941261        1 
H       4.03400660       0.88177596       1.72609229        1 
H       3.65719330       1.47691011       0.07631448        1 
H      -0.91137601      -4.06507794       0.42484819        1 
H       1.31017833      -2.97367283       0.21526614        1 
C      -3.26621224      -0.10661331      -0.12012734        6 
H      -3.27105420       0.59094752      -0.95907818        1 
H      -3.48359883       0.47508572       0.77775585        1 
H      -4.07401474      -0.82556532      -0.26881293        1 
