27
Lattice="0.0 0.0 0.0 0.0 0.0 0.0 0.0 0.0 0.0" Properties=species:S:1:pos:R:3:Z:I:1 pbc="F F F"
C      -0.18484477      -1.00273280       0.15127909        6 
C      -0.86098669       0.22642435       0.00563223        6 
C       1.30963722      -1.13666754       0.24257096        6 
C      -0.11086270       1.51796969       0.01247882        6 
O       1.88750370      -0.88802414      -0.94988367        8 
O       1.90751199      -1.49737277       1.22426280        8 
O       1.09328051       1.38970118       0.60796545        8 
O      -0.51868318       2.57427649      -0.41322433        8 
C       1.92717373       2.55868557       0.63236336        6 
C       3.32240315      -0.98561140      -0.98192373        6 
C      -0.89468299      -2.20059289       0.20369356        6 
C      -2.27993023      -2.19156490       0.09212369        6 
C      -2.95107932      -0.98513161      -0.06005060        6 
C      -2.27237461       0.23763393      -0.10417443        6 
H       2.13719263       2.89768616      -0.38334994        1 
H       3.76560078      -0.27574957      -0.28139736        1 
H      -4.03261372      -0.98212128      -0.13920149        1 
H       1.44069752       3.36240748       1.18676620        1 
H       2.84096900       2.24755288       1.13382114        1 
H       3.60653233      -0.74556288      -2.00411198        1 
H       3.64383810      -1.99509146      -0.72110770        1 
H      -2.83491965      -3.12230231       0.12717500        1 
H      -0.35789728      -3.13340033       0.32816405        1 
C      -3.09130445       1.49798990      -0.24894238        6 
H      -2.89707955       1.99020759      -1.20340759        1 
H      -2.85605768       2.22895827       0.52658349        1 
H      -4.15423803       1.25661377      -0.18822349        1 
