27
Lattice="0.0 0.0 0.0 0.0 0.0 0.0 0.0 0.0 0.0" Properties=species:S:1:pos:R:3:Z:I:1 pbc="F F F"
C       0.55013218      -0.85681498      -0.18599902        6 
C      -0.70447485      -0.23694587      -0.07268382        6 
C       1.79925550      -0.03503430      -0.23209461        6 
C      -0.88232493       1.23855434      -0.31816425        6 
O       2.78646384      -0.61634970       0.48780875        8 
O       1.95042222       0.98820948      -0.85374810        8 
O      -1.02832259       1.91398393       0.84013390        8 
O      -0.90164735       1.74923866      -1.40627228        8 
C      -1.19802569       3.34045534       0.71236269        6 
C       4.05979231       0.05317677       0.45534977        6 
C       0.64496797      -2.25045667      -0.10264642        6 
C      -0.50140489      -3.02056865       0.03983002        6 
C      -1.74256391      -2.40058293       0.15381844        6 
C      -1.86626276      -1.01058337       0.10053495        6 
H      -0.33941037       3.77578397       0.19972662        1 
H       4.44016044       0.09880123      -0.56651693        1 
H      -2.63586558      -3.00323492       0.28051104        1 
H      -2.10622632       3.56610288       0.15090634        1 
H      -1.27248314       3.71502032       1.73070101        1 
H       4.71564161      -0.54449149       1.08449134        1 
H       3.96736059       1.06662517       0.84821625        1 
H      -0.42865546      -4.10136544       0.07907719        1 
H       1.61933663      -2.71785380      -0.14911220        1 
C      -3.22676716      -0.36278099       0.20695472        6 
H      -3.45326318       0.22908765      -0.68492882        1 
H      -3.27947749       0.30756611       1.06876032        1 
H      -4.00756420      -1.11701271       0.31588395        1 
