27
Lattice="0.0 0.0 0.0 0.0 0.0 0.0 0.0 0.0 0.0" Properties=species:S:1:pos:R:3:Z:I:1 pbc="F F F"
C       0.07783037      -1.22013152      -0.08492406        6 
C      -0.68556091      -0.03508122      -0.03290989        6 
C       1.57492640      -1.26169345      -0.03650196        6 
C      -0.04721253       1.27776780      -0.38571349        6 
O       2.10751655      -0.13097058       0.46044312        8 
O       2.23158779      -2.24224772      -0.30168428        8 
O      -0.34235830       2.24473525       0.50487719        8 
O       0.64863340       1.45191727      -1.35542086        8 
C       0.22122976       3.54029652       0.22962027        6 
C       3.54262512      -0.08511257       0.52880840        6 
C      -0.55444050      -2.46225958      -0.00476800        6 
C      -1.93538608      -2.53848124       0.12355001        6 
C      -2.68548771      -1.37054985       0.18218691        6 
C      -2.08679023      -0.10800759       0.09381171        6 
H       1.31050104       3.48228108       0.21383119        1 
H       3.92092273      -0.89456218       1.15464663        1 
H      -3.76427483      -1.43146140       0.27879177        1 
H      -0.13133391       3.91435827      -0.73294547        1 
H      -0.11777099       4.18189518       1.03980986        1 
H       3.77969587       0.88248833       0.96521321        1 
H       3.96976485      -0.16980097      -0.47146119        1 
H      -2.42505089      -3.50373761       0.18370931        1 
H       0.05694659      -3.35515028      -0.02734890        1 
C      -2.97364686       1.11658129       0.09334131        6 
H      -2.76692889       1.76571592      -0.76169808        1 
H      -2.82538388       1.71523895       0.99412585        1 
H      -4.02324136       0.82269383       0.04248124        1 
