27
Lattice="0.0 0.0 0.0 0.0 0.0 0.0 0.0 0.0 0.0" Properties=species:S:1:pos:R:3:Z:I:1 pbc="F F F"
C       0.69915321      -0.75867017      -0.01339312        6 
C      -0.64322657      -0.34049692      -0.04983744        6 
C       1.78739276       0.25752577       0.09894186        6 
C      -0.98774842       1.09235560      -0.35507560        6 
O       3.00487988      -0.27486393      -0.13863087        8 
O       1.61808805       1.42012189       0.38274407        8 
O      -1.67766670       1.66468041       0.64716394        8 
O      -0.70768098       1.64335255      -1.38940808        8 
C      -2.03930795       3.04514059       0.44792891        6 
C       4.11848382       0.62804782      -0.02226995        6 
C       1.00102142      -2.12114881       0.07298063        6 
C      -0.02209283      -3.06042801       0.11521419        6 
C      -1.34750406      -2.64181619       0.07960056        6 
C      -1.68224996      -1.28648855      -0.01134429        6 
H      -1.14232188       3.64988711       0.31008735        1 
H       4.01053589       1.45733470      -0.72260498        1 
H      -2.14427768      -3.37779729       0.10876589        1 
H      -2.68461686       3.14861248      -0.42606393        1 
H      -2.56723519       3.33849344       1.35249191        1 
H       4.99747073       0.03394627      -0.26226537        1 
H       4.18496240       1.02167079       0.99335580        1 
H       0.21228981      -4.11666301       0.18191169        1 
H       2.03562603      -2.43185631       0.11918912        1 
C      -3.13611750      -0.88081627      -0.09441870        6 
H      -3.32801066      -0.25881346      -0.97361215        1 
H      -3.43617957      -0.30403073       0.78322505        1 
H      -3.77602816      -1.76195644      -0.16277681        1 
