27
Lattice="0.0 0.0 0.0 0.0 0.0 0.0 0.0 0.0 0.0" Properties=species:S:1:pos:R:3:Z:I:1 pbc="F F F"
C      -0.15179787      -1.21724218      -0.06247613        6 
C      -0.74292911       0.05720931      -0.10157326        6 
C       1.32137622      -1.45925485       0.02247809        6 
C       0.05654444       1.31441150      -0.31763370        6 
O       2.04954506      -0.40236270      -0.37867943        8 
O       1.81339525      -2.48457835       0.43508529        8 
O       0.37278859       1.89819278       0.85419780        8 
O       0.34896552       1.75981414      -1.39721528        8 
C       1.15069987       3.10667828       0.76070023        6 
C       3.47747991      -0.53765470      -0.28274045        6 
C      -0.96463582      -2.35338875       0.03099066        6 
C      -2.34537513      -2.22899178       0.06034355        6 
C      -2.92510383      -0.96344152       0.02325756        6 
C      -2.14271766       0.19027301      -0.05967804        6 
H       2.09563897       2.90808108       0.25246867        1 
H       3.77660132      -0.67696466       0.75739408        1 
H      -4.00498954      -0.86441500       0.05736709        1 
H       0.60235899       3.87306371       0.21063254        1 
H       1.32419157       3.42004074       1.78754314        1 
H       3.88101515       0.39041807      -0.68109302        1 
H       3.81881142      -1.38925536      -0.87248095        1 
H      -2.97060532      -3.11231079       0.12168881        1 
H      -0.48946488      -3.32396092       0.09026419        1 
C      -2.79588672       1.55107713      -0.11882038        6 
H      -2.57413526       2.05293896      -1.06496786        1 
H      -2.43985005       2.19728976       0.68812801        1 
H      -3.87970699       1.46490134      -0.02859576        1 
