27
Lattice="0.0 0.0 0.0 0.0 0.0 0.0 0.0 0.0 0.0" Properties=species:S:1:pos:R:3:Z:I:1 pbc="F F F"
C       0.20251835      -0.92509132      -0.08191648        6 
C      -0.88787089      -0.03969530      -0.03828712        6 
C       1.59052832      -0.41356918      -0.30011931        6 
C      -0.66852415       1.43988231      -0.13879422        6 
O       2.48719623      -1.08066317       0.45372361        8 
O       1.89244742       0.44392758      -1.09625512        8 
O       0.19244157       1.86794655       0.80411014        8 
O      -1.21165791       2.16323768      -0.93673004        8 
C       0.60261978       3.24452319       0.70010616        6 
C       3.86740604      -0.72482546       0.24891325        6 
C      -0.00784605      -2.30173652       0.02250184        6 
C      -1.30144257      -2.79591224       0.14268760        6 
C      -2.37958277      -1.91748427       0.17484129        6 
C      -2.19929059      -0.53335553       0.08302644        6 
H       1.10515284       3.40742681      -0.25447478        1 
H       4.15948347      -0.91223966      -0.78565867        1 
H      -3.38650937      -2.30822632       0.27600938        1 
H      -0.25925315       3.90858982       0.77787591        1 
H       1.28811433       3.40489161       1.52910836        1 
H       4.43229478      -1.35753413       0.92963503        1 
H       4.02608168       0.32908452       0.48098783        1 
H      -1.46982034      -3.86443864       0.21466403        1 
H       0.84011640      -2.97359408      -0.00063382        1 
C      -3.40088030       0.38015271       0.12323546        6 
H      -3.56650753       0.84860256      -0.84950089        1 
H      -3.27204058       1.18995603       0.84572287        1 
H      -4.29658213      -0.17974612       0.39732237        1 
