27
Lattice="0.0 0.0 0.0 0.0 0.0 0.0 0.0 0.0 0.0" Properties=species:S:1:pos:R:3:Z:I:1 pbc="F F F"
C       0.69155244      -0.75764916      -0.03838565        6 
C      -0.64550799      -0.30994766       0.00096164        6 
C       1.82230220       0.19476414      -0.29061095        6 
C      -0.87588764       1.15098857       0.24866154        6 
O       2.89788748      -0.10593293       0.46366232        8 
O       1.80147698       1.07657453      -1.11313228        8 
O      -2.00011818       1.61240703      -0.33334681        8 
O      -0.12519648       1.85196088       0.88364901        8 
C      -2.27279258       3.01388269      -0.14761653        6 
C       4.05867668       0.71836524       0.25017724        6 
C       0.98083758      -2.12031020      -0.04899049        6 
C      -0.05430395      -3.04976825      -0.02921500        6 
C      -1.37090698      -2.61285127       0.00146582        6 
C      -1.69752482      -1.24977855       0.03002032        6 
H      -2.35881967       3.24915836       0.91419013        1 
H       4.41225491       0.61989373      -0.77764440        1 
H      -2.17475441      -3.34071723       0.02462420        1 
H      -1.47439965       3.61434452      -0.58547746        1 
H      -3.21508958       3.19435140      -0.66034191        1 
H       4.80566999       0.35220630       0.95091804        1 
H       3.82045631       1.76366172       0.45038715        1 
H       0.16638175      -4.11114953      -0.03984117        1 
H       2.01253255      -2.44475518      -0.08847476        1 
C      -3.16080150      -0.87770841       0.12543539        6 
H      -3.49989724      -0.36734021      -0.77756862        1 
H      -3.35698006      -0.20364806       0.96189332        1 
H      -3.76455102      -1.77615650       0.26378397        1 
