27
Lattice="0.0 0.0 0.0 0.0 0.0 0.0 0.0 0.0 0.0" Properties=species:S:1:pos:R:3:Z:I:1 pbc="F F F"
C       0.64799603      -0.89334796       0.28096754        6 
C      -0.57838666      -0.25426513      -0.03776130        6 
C       2.00075540      -0.24044497       0.18786849        6 
C      -0.64711006       1.22153702       0.24253618        6 
O       2.09120065       0.54057410      -0.90166079        8 
O       2.95289881      -0.55959291       0.86140828        8 
O      -1.90188872       1.71850431       0.17923396        8 
O       0.29868302       1.91838236       0.52674931        8 
C      -2.03764012       3.11467923       0.49782182        6 
C       3.35180611       1.19944153      -1.09966333        6 
C       0.70636842      -2.27488996       0.43843509        6 
C      -0.43006293      -3.05048181       0.23247960        6 
C      -1.60719844      -2.44166916      -0.17328266        6 
C      -1.72134484      -1.04849892      -0.29577710        6 
H      -1.69640533       3.30763326       1.51579104        1 
H       3.55342289       1.87500038      -0.26673550        1 
H      -2.47992585      -3.05139143      -0.38081951        1 
H      -1.45592265       3.72342397      -0.19564750        1 
H      -3.09995811       3.32885764       0.40078854        1 
H       3.24208118       1.75921250      -2.02584908        1 
H       4.15955153       0.47049341      -1.18138402        1 
H      -0.38598290      -4.12696988       0.35360775        1 
H       1.65653704      -2.73020492       0.68672766        1 
C      -3.07809683      -0.51702318      -0.70485731        6 
H      -3.00154114       0.26414906      -1.46003449        1 
H      -3.61207435      -0.08582242       0.14458069        1 
H      -3.67996995      -1.33420056      -1.10749968        1 
