27
Lattice="0.0 0.0 0.0 0.0 0.0 0.0 0.0 0.0 0.0" Properties=species:S:1:pos:R:3:Z:I:1 pbc="F F F"
C       0.51996755      -0.84215110      -0.02530641        6 
C      -0.75853782      -0.27083635       0.09177876        6 
C       1.72807574       0.01999528       0.11913670        6 
C      -0.95705167       1.21023366       0.27231458        6 
O       2.87365357      -0.66867200      -0.06993765        8 
O       1.70793841       1.20054876       0.38339719        8 
O      -0.78389299       1.86207715      -0.88992170        8 
O      -1.32835289       1.72493473       1.29731903        8 
C      -0.86781272       3.29762274      -0.82122525        6 
C       4.09094976       0.08282940       0.07905244        6 
C       0.64824881      -2.22398917      -0.21213772        6 
C      -0.48395596      -3.02376509      -0.28836444        6 
C      -1.74706859      -2.45118187      -0.16797882        6 
C      -1.90799824      -1.07652991       0.02506592        6 
H      -1.84488386       3.60862603      -0.44854766        1 
H       4.13538343       0.88613579      -0.65786543        1 
H      -2.62966653      -3.07936053      -0.22741610        1 
H      -0.08563430       3.67919894      -0.16340885        1 
H      -0.71606426       3.64493568      -1.84077930        1 
H       4.89293958      -0.63334780      -0.08544713        1 
H       4.15463974       0.51015260       1.08080459        1 
H      -0.38484062      -4.09297488      -0.43668460        1 
H       1.63541445      -2.65742636      -0.28983118        1 
C      -3.29209787      -0.48512949       0.15066043        6 
H      -3.44860119       0.32098350      -0.57176529        1 
H      -3.45038352      -0.06332065       1.14598768        1 
H      -4.05387014      -1.24635605      -0.02545472        1 
