27
Lattice="0.0 0.0 0.0 0.0 0.0 0.0 0.0 0.0 0.0" Properties=species:S:1:pos:R:3:Z:I:1 pbc="F F F"
C       0.17849298      -1.19595043      -0.01291810        6 
C      -0.69860841      -0.09711180      -0.05684725        6 
C       1.66531620      -1.04806675      -0.13155212        6 
C      -0.11555242       1.25428335      -0.33315655        6 
O       2.14832666      -0.19048830       0.78810430        8 
O       2.34669238      -1.65357576      -0.92053747        8 
O      -0.65407045       2.21705408       0.43971259        8 
O       0.74859545       1.46570949      -1.15085575        8 
C      -0.15186745       3.54862340       0.22360214        6 
C       3.55314842       0.10628490       0.68940395        6 
C      -0.31676826      -2.49056178       0.13289370        6 
C      -1.68551231      -2.69687098       0.25757618        6 
C      -2.55438508      -1.61239335       0.21175453        6 
C      -2.08946740      -0.30275455       0.04868083        6 
H       0.91827452       3.58730465       0.43168562        1 
H       4.14303714      -0.80934387       0.74560293        1 
H      -3.62331239      -1.77975367       0.28879749        1 
H      -0.32880252       3.86028779      -0.80688867        1 
H      -0.70144771       4.18063192       0.91748110        1 
H       3.77174380       0.75753365       1.53268767        1 
H       3.75738661       0.61458171      -0.25440590        1 
H      -2.07631247      -3.70100107       0.37691852        1 
H       0.37490122      -3.32379325       0.14656761        1 
C      -3.10049507       0.81752764      -0.04118540        6 
H      -2.90856546       1.47144962      -0.89479207        1 
H      -3.07757116       1.44242067       0.85365440        1 
H      -4.10574958       0.40680457      -0.15097991        1 
