27
Lattice="0.0 0.0 0.0 0.0 0.0 0.0 0.0 0.0 0.0" Properties=species:S:1:pos:R:3:Z:I:1 pbc="F F F"
C      -0.10254194      -0.99875800       0.16270841        6 
C      -0.85614515       0.17288382      -0.01659373        6 
C       1.39298471      -1.01633108       0.32164889        6 
C      -0.24400315       1.51443850       0.25630071        6 
O       2.00611945      -0.88943498      -0.86652252        8 
O       1.96842769      -1.24717213       1.35758680        8 
O       0.91457501       1.69916924      -0.40293203        8 
O      -0.70503970       2.32126182       1.02809974        8 
C       1.63658359       2.90502938      -0.08854674        6 
C       3.44382296      -0.93061389      -0.84197121        6 
C      -0.72746211      -2.24681052       0.13669967        6 
C      -2.09347749      -2.33267381      -0.10066407        6 
C      -2.83637708      -1.17386295      -0.30294649        6 
C      -2.24710851       0.09043986      -0.23634592        6 
H       1.04597504       3.78357633      -0.35155745        1 
H       3.83582979      -0.13333534      -0.20825152        1 
H      -3.90067854      -1.24693194      -0.49886775        1 
H       1.87600971       2.93621103       0.97532399        1 
H       2.54360332       2.86010334      -0.68721733        1 
H       3.75367924      -0.78724081      -1.87461589        1 
H       3.79397860      -1.89292422      -0.46493214        1 
H      -2.57836337      -3.30179208      -0.13405235        1 
H      -0.13832895      -3.14307659       0.29072571        1 
C      -3.11004111       1.31869117      -0.40153100        6 
H      -2.66842158       2.03634338      -1.09713410        1 
H      -3.23768262       1.83544981       0.55189763        1 
H      -4.09490874       1.04027429      -0.78103117        1 
