27
Lattice="0.0 0.0 0.0 0.0 0.0 0.0 0.0 0.0 0.0" Properties=species:S:1:pos:R:3:Z:I:1 pbc="F F F"
C       0.52213612      -0.72678151      -0.22485338        6 
C      -0.75336697      -0.23856992       0.12803547        6 
C       1.76019032       0.10758444      -0.04523360        6 
C      -1.04858517       1.22756382       0.28868411        6 
O       2.77187094      -0.66221371       0.42473111        8 
O       1.89797789       1.28048094      -0.29045696        8 
O      -0.72308298       1.90385176      -0.82024768        8 
O      -1.66134025       1.70765173       1.21476321        8 
C      -0.94311075       3.32454242      -0.78979325        6 
C       4.03544935       0.00244065       0.60058567        6 
C       0.68332938      -2.08119511      -0.53502064        6 
C      -0.41209781      -2.93405551      -0.54539459        6 
C      -1.66377124      -2.45336676      -0.17997637        6 
C      -1.86033436      -1.11230113       0.16361761        6 
H      -1.99376508       3.54748772      -0.59787136        1 
H       4.39921156       0.38967042      -0.35269528        1 
H      -2.51491819      -3.12552148      -0.16822970        1 
H      -0.32594385       3.78088511      -0.01463322        1 
H      -0.64376736       3.68170076      -1.77223832        1 
H       4.70876478      -0.75865645       0.98873633        1 
H       3.93764183       0.82684167       1.30821884        1 
H      -0.28683511      -3.97675374      -0.81410427        1 
H       1.67177044      -2.45896054      -0.75679026        1 
C      -3.25166112      -0.64666796       0.52775594        6 
H      -3.56991440       0.19728907      -0.08988740        1 
H      -3.29870291      -0.31166476       1.56526929        1 
H      -3.96868359      -1.45755504       0.38861502        1 
