27
Lattice="0.0 0.0 0.0 0.0 0.0 0.0 0.0 0.0 0.0" Properties=species:S:1:pos:R:3:Z:I:1 pbc="F F F"
C       0.48822279      -0.86323574      -0.01588772        6 
C      -0.77444666      -0.24977978      -0.07262783        6 
C       1.71930443      -0.03166569      -0.14207978        6 
C      -0.92639582       1.23602131      -0.25713670        6 
O       2.83629177      -0.72250599       0.16949980        8 
O       1.73876928       1.12362827      -0.50071919        8 
O      -0.69837061       1.89423791       0.89198014        8 
O      -1.28643130       1.75509580      -1.28358770        8 
C      -0.72448638       3.33142454       0.80313119        6 
C       4.07676852      -0.00782897       0.02771187        6 
C       0.57954823      -2.25219747       0.13510025        6 
C      -0.57431485      -3.01948633       0.22076919        6 
C      -1.82209730      -2.40515771       0.15962838        6 
C      -1.94574244      -1.02143523       0.00933631        6 
H       0.03298656       3.66917046       0.09465213        1 
H       4.21447167       0.31464471      -1.00546204        1 
H      -2.72162608      -3.00766287       0.23058891        1 
H      -1.70799042       3.67808484       0.48214590        1 
H      -0.50007551       3.68682774       1.80638586        1 
H       4.85099794      -0.71537214       0.31602737        1 
H       4.08997569       0.86514745       0.68162165        1 
H      -0.50418513      -4.09513895       0.33500419        1 
H       1.55496180      -2.71619690       0.17862581        1 
C      -3.31362980      -0.38529476      -0.06376724        6 
H      -3.49770001       0.03448017      -1.05585296        1 
H      -3.41512944       0.43022929       0.65756567        1 
H      -4.09234729      -1.11988518       0.14783977        1 
