27
Lattice="0.0 0.0 0.0 0.0 0.0 0.0 0.0 0.0 0.0" Properties=species:S:1:pos:R:3:Z:I:1 pbc="F F F"
C       0.53827920      -0.85079062       0.23713362        6 
C      -0.69332969      -0.27080162      -0.08699204        6 
C       1.77150498      -0.00398839       0.26898889        6 
C      -0.77631131       1.20934458      -0.33685090        6 
O       2.72951694      -0.51202367      -0.52775224        8 
O       1.91825515       0.97586619       0.96046253        8 
O      -1.27129967       1.85336706       0.73011530        8 
O      -0.48331716       1.74235246      -1.37977788        8 
C      -1.36660142       3.28727530       0.61359685        6 
C       3.98040087       0.20378584      -0.54651265        6 
C       0.62778454      -2.22751741       0.45410664        6 
C      -0.51918039      -3.00986350       0.39152949        6 
C      -1.74309117      -2.42745960       0.07126768        6 
C      -1.85435049      -1.05624007      -0.17324049        6 
H      -0.38162989       3.71060888       0.41479614        1 
H       3.82290816       1.22984351      -0.88065391        1 
H      -2.63129444      -3.04700601       0.00586060        1 
H      -2.05012141       3.55859559      -0.19261161        1 
H      -1.74612226       3.62878301       1.57355008        1 
H       4.60984583      -0.33721331      -1.24908868        1 
H       4.42857587       0.21208660       0.44835048        1 
H      -0.45909242      -4.07632444       0.57640829        1 
H       1.58985531      -2.67493465       0.66977584        1 
C      -3.18908623      -0.44386254      -0.52327030        6 
H      -3.12856466       0.14172687      -1.44485493        1 
H      -3.53368886       0.22574752       0.26994230        1 
H      -3.94565949      -1.21714393      -0.66558288        1 
