27
Lattice="0.0 0.0 0.0 0.0 0.0 0.0 0.0 0.0 0.0" Properties=species:S:1:pos:R:3:Z:I:1 pbc="F F F"
C       0.50513481      -0.74745591       0.22844040        6 
C      -0.75522432      -0.21751562      -0.11474219        6 
C       1.76474087       0.05292168       0.05030932        6 
C      -0.99792478       1.25698870      -0.28594941        6 
O       2.74870125      -0.73610885      -0.44462576        8 
O       1.93664169       1.21708243       0.31549368        8 
O      -0.68053347       1.92745536       0.82839403        8 
O      -1.56300828       1.75286105      -1.23364968        8 
C      -0.84876976       3.35518266       0.78284644        6 
C       4.02797429      -0.10336389      -0.62625066        6 
C       0.62523495      -2.10874984       0.52757129        6 
C      -0.49682698      -2.92621483       0.53687834        6 
C      -1.73479873      -2.40322774       0.18143654        6 
C      -1.88958338      -1.05450939      -0.15252339        6 
H      -0.19995683       3.78265356       0.01715663        1 
H       3.94471497       0.73127252      -1.32372394        1 
H      -2.60670720      -3.04827058       0.16842258        1 
H      -1.88668252       3.61362681       0.56732408        1 
H      -0.55737671       3.70949904       1.76865713        1 
H       4.67648110      -0.87759626      -1.03027215        1 
H       4.41182155       0.26316355       0.32728037        1 
H      -0.40349276      -3.97456973       0.79641126        1 
H       1.60236906      -2.51942521       0.74133942        1 
C      -3.26334582      -0.53962245      -0.51601033        6 
H      -3.29968176      -0.21106458      -1.55623673        1 
H      -3.54813279       0.32027072       0.09596606        1 
H      -4.01080553      -1.32120660      -0.36986797        1 
