27
Lattice="0.0 0.0 0.0 0.0 0.0 0.0 0.0 0.0 0.0" Properties=species:S:1:pos:R:3:Z:I:1 pbc="F F F"
C      -0.07368802      -0.97157599       0.20658267        6 
C      -0.85542358       0.17626454      -0.04505264        6 
C       1.42903086      -0.99146912       0.28294346        6 
C      -0.26593906       1.54663016       0.06353449        6 
O       1.96629589      -0.91165757      -0.94813551        8 
O       2.06330847      -1.21099473       1.28520790        8 
O       1.08213684       1.53632811       0.03570418        8 
O      -0.89951283       2.56480178       0.22695851        8 
C       1.73474469       2.79487106       0.27325749        6 
C       3.40154173      -0.96291590      -1.00991055        6 
C      -0.67203658      -2.22547802       0.31860804        6 
C      -2.04339066      -2.36061074       0.14025458        6 
C      -2.81179670      -1.24269193      -0.15669725        6 
C      -2.25233121       0.03681233      -0.23771147        6 
H       1.47589073       3.51125285      -0.50758763        1 
H       3.83340809      -0.13039517      -0.45162902        1 
H      -3.87846926      -1.35432526      -0.31743991        1 
H       1.44198201       3.19693422       1.24396193        1 
H       2.79958466       2.57427815       0.25485374        1 
H       3.64881689      -0.88505611      -2.06627307        1 
H       3.77121835      -1.90230206      -0.59571831        1 
H      -2.50865162      -3.33667478       0.22024010        1 
H      -0.05672633      -3.09195416       0.52917351        1 
C      -3.18102839       1.19048229      -0.53390842        6 
H      -2.78464469       1.84838393      -1.30798946        1 
H      -3.33334194       1.81401068       0.34961222        1 
H      -4.14935690       0.80659664      -0.86109689        1 
