27
Lattice="0.0 0.0 0.0 0.0 0.0 0.0 0.0 0.0 0.0" Properties=species:S:1:pos:R:3:Z:I:1 pbc="F F F"
C       0.73623922       0.67673834      -0.08087689        6 
C      -0.62488254       0.29570671       0.06573899        6 
C       1.85482911      -0.25464540       0.30210752        6 
C      -0.94481133      -1.15257509      -0.19556698        6 
O       2.98227791       0.01448245      -0.39437583        8 
O       1.78097988      -1.11896596       1.13708680        8 
O      -2.22980292      -1.47636990       0.07156766        8 
O      -0.14603103      -1.97221503      -0.57772892        8 
C      -2.58640326      -2.85266329      -0.14814987        6 
C       4.11297768      -0.81977343      -0.08457607        6 
C       1.07985559       2.01726119      -0.23282877        6 
C       0.09259698       2.99876263      -0.22959979        6 
C      -1.22949952       2.63698096      -0.03326380        6 
C      -1.62437987       1.29486060       0.09378368        6 
H      -2.41809304      -3.13166390      -1.18946060        1 
H       4.41123965      -0.69011679       0.95724366        1 
H      -1.99424820       3.40539459      -0.00399078        1 
H      -1.99614379      -3.50588128       0.49613871        1 
H      -3.64342181      -2.91872174       0.10155322        1 
H       4.90571071      -0.49444203      -0.75464483        1 
H       3.86632929      -1.86825258      -0.25796214        1 
H       0.36014446       4.04185760      -0.35351880        1 
H       2.12412424       2.28582921      -0.31840956        1 
C      -3.10970848       1.03687093       0.23022685        6 
H      -3.33653524       0.43108072       1.10751468        1 
H      -3.50753670       0.49879467      -0.63229695        1 
H      -3.63906742       1.98765667       0.31519038        1 
