27
Lattice="0.0 0.0 0.0 0.0 0.0 0.0 0.0 0.0 0.0" Properties=species:S:1:pos:R:3:Z:I:1 pbc="F F F"
C       0.46114349      -0.96086053      -0.25476393        6 
C      -0.67366981      -0.22181341       0.10060593        6 
C       1.80154701      -0.29417935      -0.38578164        6 
C      -0.53816056       1.26520539       0.24276204        6 
O       2.50962739      -0.42348301       0.74511569        8 
O       2.21046902       0.23251013      -1.39216196        8 
O      -1.29161396       1.90990079      -0.66689038        8 
O       0.15015924       1.82344758       1.06305331        8 
C      -1.22554421       3.34935451      -0.63870086        6 
C       3.81113164       0.19610973       0.75246610        6 
C       0.36888845      -2.33681752      -0.45855020        6 
C      -0.85849703      -2.97277289      -0.30602512        6 
C      -1.98311407      -2.23893479       0.06082291        6 
C      -1.91884054      -0.85683765       0.25574624        6 
H      -1.55284084       3.72790135       0.33081496        1 
H       4.43702272      -0.22089945      -0.03788621        1 
H      -2.93316295      -2.74504054       0.19587130        1 
H      -0.20482776       3.68201651      -0.83125199        1 
H      -1.89341927       3.68311483      -1.42936986        1 
H       4.22767715      -0.02370615       1.73241018        1 
H       3.71172764       1.27286242       0.60966427        1 
H      -0.93746942      -4.04266515      -0.46215041        1 
H       1.25215914      -2.90275111      -0.72949875        1 
C      -3.16351457      -0.08803118       0.63068929        6 
H      -3.55278340       0.46543096      -0.22793788        1 
H      -2.96663134       0.63775245       1.42379270        1 
H      -3.94305606      -0.76604802       0.98262966        1 
