27
Lattice="0.0 0.0 0.0 0.0 0.0 0.0 0.0 0.0 0.0" Properties=species:S:1:pos:R:3:Z:I:1 pbc="F F F"
C       0.53535513      -0.72160530      -0.21572236        6 
C      -0.74813423      -0.25231173       0.13473188        6 
C       1.75424235       0.13152466      -0.00530886        6 
C      -1.06439130       1.21108339       0.28117581        6 
O       2.80811631      -0.63705112       0.36080561        8 
O       1.84337333       1.32628641      -0.14969466        8 
O      -0.75793853       1.87617332      -0.84102868        8 
O      -1.68217343       1.69314462       1.20238542        8 
C      -0.99098682       3.29492373      -0.82479724        6 
C       4.05163550       0.05830015       0.55891260        6 
C       0.71516925      -2.07174894      -0.53437412        6 
C      -0.36924069      -2.93869501      -0.55178067        6 
C      -1.62777146      -2.47694080      -0.18550214        6 
C      -1.84368316      -1.13962912       0.16230669        6 
H      -2.03821125       3.51148122      -0.60886149        1 
H       4.36504224       0.55102803      -0.36291347        1 
H      -2.46961090      -3.16085944      -0.17802301        1 
H      -0.35723096       3.76627282      -0.07226364        1 
H      -0.72054054       3.64149265      -1.81944008        1 
H       4.76683553      -0.70878869       0.84766121        1 
H       3.94905868       0.80515419       1.34746090        1 
H      -0.22971365      -3.97833044      -0.82529065        1 
H       1.70893366      -2.43514576      -0.75540944        1 
C      -3.24239224      -0.69287026       0.52166527        6 
H      -3.57218085       0.14248337      -0.10173999        1 
H      -3.29611788      -0.35220925       1.55702444        1 
H      -3.94702024      -1.51516409       0.38634863        1 
