27
Lattice="0.0 0.0 0.0 0.0 0.0 0.0 0.0 0.0 0.0" Properties=species:S:1:pos:R:3:Z:I:1 pbc="F F F"
C       0.70560620      -0.69608596      -0.04399177        6 
C      -0.64604808      -0.29050527       0.08392538        6 
C       1.86432315       0.18865412       0.33037215        6 
C      -0.91209792       1.18026711      -0.06540549        6 
O       2.83680090       0.13861534      -0.60381086        8 
O       1.94865922       0.80169818       1.36219732        8 
O      -2.22709493       1.48197143      -0.13425083        8 
O      -0.05734316       2.03112479      -0.13016244        8 
C      -2.54229558       2.87599781      -0.29656196        6 
C       4.02341440       0.89886150      -0.30810189        6 
C       1.02709680      -2.03720190      -0.24009278        6 
C       0.02331462      -2.99950871      -0.27078115        6 
C      -1.29463745      -2.61748837      -0.07620511        6 
C      -1.66539044      -1.27387378       0.08216137        6 
H      -2.16499773       3.45310816       0.54862986        1 
H       3.77465561       1.95387021      -0.18648487        1 
H      -2.07252002      -3.37323369      -0.06690389        1 
H      -2.10425274       3.26257325      -1.21789618        1 
H      -3.62859599       2.92084914      -0.33969475        1 
H       4.68002281       0.75359714      -1.16307345        1 
H       4.49308711       0.53183465       0.60604123        1 
H       0.27174921      -4.04411993      -0.42091294        1 
H       2.06637057      -2.32379362      -0.33772754        1 
C      -3.14509480      -0.99929099       0.24244114        6 
H      -3.56409949      -0.52326957      -0.64633597        1 
H      -3.34921517      -0.33371576       1.08083488        1 
H      -3.67219859      -1.94072864       0.40844379        1 
