27
Lattice="0.0 0.0 0.0 0.0 0.0 0.0 0.0 0.0 0.0" Properties=species:S:1:pos:R:3:Z:I:1 pbc="F F F"
C       0.58924108      -0.83137055      -0.11807684        6 
C      -0.70352633      -0.28541714      -0.05649489        6 
C       1.77477184       0.07542887      -0.11859768        6 
C      -0.95920696       1.17755541      -0.31295993        6 
O       2.89960213      -0.56730491       0.26610498        8 
O       1.76217351       1.23908329      -0.44558148        8 
O      -1.11184378       1.86103308       0.83562433        8 
O      -1.04907887       1.66001259      -1.41175415        8 
C      -1.31666508       3.28095229       0.69220537        6 
C       4.10702429       0.21404649       0.24228251        6 
C       0.76041226      -2.21887411      -0.03808982        6 
C      -0.34390154      -3.05291695       0.07033287        6 
C      -1.62197446      -2.50496298       0.13697582        6 
C      -1.82454001      -1.12440277       0.07024133        6 
H      -0.47249483       3.72617376       0.16446836        1 
H       4.31074089       0.56954698      -0.76897609        1 
H      -2.48268406      -3.15845442       0.23413136        1 
H      -2.23664792       3.47951298       0.13981793        1 
H      -1.38641711       3.66669073       1.70675170        1 
H       4.89231139      -0.45941298       0.57847883        1 
H       4.02073210       1.06991441       0.91314968        1 
H      -0.21125496      -4.12767048       0.11683918        1 
H       1.76060955      -2.62848186      -0.05757634        1 
C      -3.22324517      -0.55560666       0.11104904        6 
H      -3.46252821      -0.03372763      -0.82021670        1 
H      -3.33570443       0.16176788       0.92801802        1 
H      -3.96023779      -1.34785228       0.25131569        1 
