27
Lattice="0.0 0.0 0.0 0.0 0.0 0.0 0.0 0.0 0.0" Properties=species:S:1:pos:R:3:Z:I:1 pbc="F F F"
C       0.17014050      -0.93747110       0.11167617        6 
C      -0.88981322      -0.01985935       0.03512090        6 
C       1.57358837      -0.46477942       0.32190669        6 
C      -0.62386028       1.45067455       0.15187056        6 
O       2.43441926      -1.10542988      -0.49347141        8 
O       1.91363089       0.33691527       1.15923305        8 
O       0.26218495       1.85910487      -0.77727590        8 
O      -1.14005579       2.18064596       0.96105345        8 
C       0.71297050       3.22177387      -0.65906754        6 
C       3.82639258      -0.78352965      -0.31405130        6 
C      -0.08091731      -2.30809718       0.01977205        6 
C      -1.38726063      -2.76262310      -0.11672255        6 
C      -2.43658837      -1.85114081      -0.18317675        6 
C      -2.21381287      -0.47289953      -0.10648705        6 
H      -0.13187924       3.91032633      -0.69982903        1 
H       3.99779304       0.27697347      -0.50369828        1 
H      -3.45319674      -2.21153573      -0.29881024        1 
H       1.24553271       3.35206031       0.28433771        1 
H       1.38003554       3.37988736      -1.50343502        1 
H       4.35931369      -1.39408295      -1.03931219        1 
H       4.14492351      -1.02249787       0.70185853        1 
H      -1.58822891      -3.82619137      -0.17760674        1 
H       0.74497454      -3.00640945       0.06261800        1 
C      -3.38114651       0.48152469      -0.18672686        6 
H      -3.21453989       1.26064275      -0.93504908        1 
H      -3.53875361       0.98643979       0.76878447        1 
H      -4.29423211      -0.05338573      -0.45336259        1 
