27
Lattice="0.0 0.0 0.0 0.0 0.0 0.0 0.0 0.0 0.0" Properties=species:S:1:pos:R:3:Z:I:1 pbc="F F F"
C       0.12412390      -1.03471356       0.23868593        6 
C      -0.78589410      -0.01859282      -0.06755345        6 
C       1.59642590      -0.75370642       0.34520414        6 
C      -0.29620105       1.38244084      -0.30287030        6 
O       2.20899971      -0.98937417      -0.82904080        8 
O       2.16526442      -0.39337384       1.34571695        8 
O      -0.14709186       2.04247651       0.85717839        8 
O      -0.06907973       1.85849089      -1.38864557        8 
C       0.36823304       3.38601112       0.76517474        6 
C       3.63454641      -0.77473459      -0.85920213        6 
C      -0.32465463      -2.34178667       0.43253137        6 
C      -1.68150737      -2.62652764       0.33005803        6 
C      -2.58469995      -1.61258267       0.02152360        6 
C      -2.15768329      -0.29903881      -0.18473955        6 
H       1.35430714       3.37888803       0.29897908        1 
H       3.86827607       0.25882151      -0.60109033        1 
H      -3.64176412      -1.84184134      -0.06150619        1 
H      -0.30513565       4.01273601       0.17854090        1 
H       0.43194562       3.73918981       1.79141167        1 
H       3.93532978      -0.99314237      -1.88099108        1 
H       4.13407564      -1.44422151      -0.15722922        1 
H      -2.03596805      -3.63919003       0.48490527        1 
H       0.38594760      -3.12715703       0.66127313        1 
C      -3.14486575       0.78807311      -0.53280392        6 
H      -2.93773298       1.20361065      -1.52285822        1 
H      -3.09735662       1.61294068       0.18466209        1 
H      -4.16514522       0.40144688      -0.53196849        1 
