27
Lattice="0.0 0.0 0.0 0.0 0.0 0.0 0.0 0.0 0.0" Properties=species:S:1:pos:R:3:Z:I:1 pbc="F F F"
C       0.64350153      -0.84476683       0.13800398        6 
C      -0.65083375      -0.30991104      -0.00532599        6 
C       1.83926726       0.03515588       0.37394502        6 
C      -0.75083649       1.17567048      -0.15354972        6 
O       2.71635109      -0.05235327      -0.63951133        8 
O       2.02321653       0.66597947       1.38507843        8 
O      -1.91885916       1.67700542       0.29084310        8 
O       0.13358180       1.86811397      -0.60234263        8 
C      -2.07004292       3.10567359       0.18994976        6 
C       3.90131861       0.75643956      -0.51109677        6 
C       0.84354335      -2.22176064       0.18143680        6 
C      -0.24673800      -3.07988162       0.08726360        6 
C      -1.52567794      -2.55795814      -0.05967531        6 
C      -1.76044668      -1.17881828      -0.11364936        6 
H      -1.30558135       3.60929327       0.78282913        1 
H       3.62678894       1.80897033      -0.43166830        1 
H      -2.37004810      -3.23283649      -0.14714031        1 
H      -1.98769278       3.42556188      -0.84981566        1 
H      -3.06253766       3.31755610       0.58127055        1 
H       4.47377231       0.57491585      -1.41793564        1 
H       4.47232178       0.46266876       0.37119799        1 
H      -0.09965628      -4.15345381       0.12263046        1 
H       1.84630413      -2.61513486       0.29434108        1 
C      -3.18472405      -0.71288274      -0.31544562        6 
H      -3.27013524      -0.00671981      -1.14361629        1 
H      -3.56528472      -0.20510475       0.57262634        1 
H      -3.82893239      -1.56773571      -0.52879323        1 
