27
Lattice="0.0 0.0 0.0 0.0 0.0 0.0 0.0 0.0 0.0" Properties=species:S:1:pos:R:3:Z:I:1 pbc="F F F"
C       0.57721570      -0.83449581      -0.08791509        6 
C      -0.71874456      -0.29378585      -0.06116442        6 
C       1.75620433       0.07893742      -0.10658169        6 
C      -0.97023955       1.17169473      -0.30681636        6 
O       2.90084262      -0.56388249       0.21205652        8 
O       1.72000899       1.25296307      -0.39408138        8 
O      -1.06404860       1.85418556       0.84763776        8 
O      -1.11167201       1.65346238      -1.40091771        8 
C      -1.23518997       3.27939834       0.71620640        6 
C       4.09858409       0.23126137       0.17202738        6 
C       0.75283848      -2.22036195       0.01100599        6 
C      -0.35015140      -3.05722077       0.11078996        6 
C      -1.63183769      -2.51417752       0.13845177        6 
C      -1.83889814      -1.13554688       0.04767300        6 
H      -0.39497768       3.70275047       0.16462586        1 
H       4.26740740       0.61457693      -0.83556297        1 
H      -2.49186167      -3.17002729       0.22543549        1 
H      -2.16570018       3.50620601       0.19320324        1 
H      -1.26271966       3.66212890       1.73388497        1 
H       4.90093856      -0.44147270       0.46661648        1 
H       4.02382087       1.06919198       0.86650805        1 
H      -0.21418444      -4.13057239       0.17636072        1 
H       1.75488781      -2.62580360       0.01084903        1 
C      -3.24039243      -0.57232125       0.04562755        6 
H      -3.47253939      -0.10342953      -0.91498784        1 
H      -3.36456606       0.18817604       0.82088796        1 
H      -3.97504413      -1.35934029       0.22320742        1 
