27
Lattice="0.0 0.0 0.0 0.0 0.0 0.0 0.0 0.0 0.0" Properties=species:S:1:pos:R:3:Z:I:1 pbc="F F F"
C       0.13733370      -0.87607015      -0.03221117        6 
C      -0.90044418       0.08238104       0.07080541        6 
C       1.55839558      -0.57840861       0.35201334        6 
C      -0.60661552       1.54811200      -0.03454679        6 
O       2.42939115      -1.15671252      -0.50192617        8 
O       1.89086554       0.02981621       1.33823501        8 
O       0.66377636       1.78287605      -0.41727576        8 
O      -1.42410275       2.43632596       0.06093580        8 
C       1.04287933       3.16019436      -0.55742746        6 
C       3.82074495      -1.02892011      -0.15811543        6 
C      -0.16237012      -2.22180614      -0.23592043        6 
C      -1.48726518      -2.64149129      -0.30008827        6 
C      -2.50670128      -1.71573457      -0.14280487        6 
C      -2.24751237      -0.34786866       0.02653168        6 
H       0.44230113       3.64557633      -1.32827839        1 
H       4.10643301       0.02287702      -0.11183390        1 
H      -3.53869458      -2.04780715      -0.16974305        1 
H       0.91294739       3.68848368       0.38826902        1 
H       2.09252365       3.14133836      -0.84233285        1 
H       4.36263668      -1.53937520      -0.95122210        1 
H       4.01941290      -1.49698052       0.80759472        1 
H      -1.72016643      -3.68933401      -0.45278997        1 
H       0.64485129      -2.93857439      -0.31245979        1 
C      -3.43856187       0.57501240       0.13239456        6 
H      -3.48465039       1.27290535      -0.70628253        1 
H      -3.39728821       1.18660115       1.03388083        1 
H      -4.35800201      -0.01371360       0.14572649        1 
