27
Lattice="0.0 0.0 0.0 0.0 0.0 0.0 0.0 0.0 0.0" Properties=species:S:1:pos:R:3:Z:I:1 pbc="F F F"
C      -0.12089708      -1.05990914       0.28546559        6 
C      -0.75542757       0.15299641      -0.07306273        6 
C       1.33940406      -1.34621662       0.06304635        6 
C      -0.02669555       1.46370249      -0.04695266        6 
O       2.05407093      -0.27563662      -0.32821557        8 
O       1.80447994      -2.46403117       0.07784084        8 
O       0.71699904       1.56535148       1.07321478        8 
O      -0.20752520       2.38665004      -0.80628243        8 
C       1.48354531       2.77075979       1.21304520        6 
C       3.41262335      -0.53477575      -0.72336447        6 
C      -0.89381498      -2.19279320       0.54869183        6 
C      -2.27929136      -2.13538187       0.47153143        6 
C      -2.89523219      -0.95826634       0.06757588        6 
C      -2.15896538       0.20150437      -0.20586353        6 
H       2.20670789       2.85248578       0.39906470        1 
H       3.98566283      -0.92837030       0.11727510        1 
H      -3.97523711      -0.92290592      -0.02657122        1 
H       0.83350957       3.64677644       1.20544962        1 
H       1.99461987       2.67930314       2.16892265        1 
H       3.80722261       0.42766041      -1.04139216        1 
H       3.44008780      -1.25264159      -1.54443075        1 
H      -2.87432109      -3.01457132       0.69111154        1 
H      -0.38606338      -3.12235577       0.77027304        1 
C      -2.90666569       1.45437522      -0.59976980        6 
H      -2.63072734       1.78066556      -1.60361242        1 
H      -2.68519486       2.28911513       0.06938740        1 
H      -3.98222209       1.27125976      -0.57314796        1 
