27
Lattice="0.0 0.0 0.0 0.0 0.0 0.0 0.0 0.0 0.0" Properties=species:S:1:pos:R:3:Z:I:1 pbc="F F F"
C       0.50585796      -0.76661396      -0.22918486        6 
C      -0.75076807      -0.23193684       0.10899783        6 
C       1.76072681       0.04741877      -0.10201467        6 
C      -0.97360803       1.24170198       0.31186071        6 
O       2.73354908      -0.68660185       0.48690609        8 
O       1.93509254       1.17770826      -0.48642621        8 
O      -0.75483961       1.91939570      -0.82141360        8 
O      -1.42966232       1.73235833       1.31859266        8 
C      -0.91195383       3.34817773      -0.75245579        6 
C       4.01239836      -0.04057967       0.62229627        6 
C       0.62504740      -2.13186669      -0.50992250        6 
C      -0.49970744      -2.94579923      -0.51125825        6 
C      -1.73876905      -2.41397926      -0.16954119        6 
C      -1.88827629      -1.06211819       0.15113535        6 
H      -1.92822975       3.60902278      -0.45297550        1 
H       4.40413271       0.24027640      -0.35667265        1 
H      -2.61320274      -3.05562757      -0.15444293        1 
H      -0.20186940       3.76749927      -0.03853690        1 
H      -0.69907124       3.70794703      -1.75618531        1 
H       4.65673420      -0.77614591       1.09859635        1 
H       3.92385048       0.85208874       1.24313378        1 
H      -0.40907565      -3.99755666      -0.75761779        1 
H       1.60156016      -2.54679673      -0.72027800        1 
C      -3.25480041      -0.52752640       0.51150803        6 
H      -3.52826927       0.33056021      -0.10878500        1 
H      -3.28520495      -0.19121308       1.54983332        1 
H      -4.01423816      -1.29876261       0.37292603        1 
