27
Lattice="0.0 0.0 0.0 0.0 0.0 0.0 0.0 0.0 0.0" Properties=species:S:1:pos:R:3:Z:I:1 pbc="F F F"
C       0.13338324      -1.20367174       0.13762377        6 
C      -0.67210058      -0.04701760       0.03090875        6 
C       1.63223019      -1.20531061       0.05341047        6 
C      -0.09251737       1.28901336       0.39908005        6 
O       2.12732011      -0.06011938      -0.44615280        8 
O       2.31644094      -2.17950473       0.27039959        8 
O      -0.48628235       2.26982350      -0.43844984        8 
O       0.65291732       1.47001471       1.32985194        8 
C       0.01948584       3.58438996      -0.14421878        6 
C       3.55609609       0.00222866      -0.58774938        6 
C      -0.45243062      -2.46914001       0.08622110        6 
C      -1.82716504      -2.60233081      -0.06389049        6 
C      -2.61628772      -1.46679149      -0.18530188        6 
C      -2.06726638      -0.17921845      -0.12598806        6 
H      -0.28945814       3.89946160       0.85380241        1 
H       4.03759238      -0.11008336       0.38469026        1 
H      -3.68920118      -1.57063183      -0.30681207        1 
H       1.10903278       3.59170934      -0.20044797        1 
H      -0.40820925       4.23570501      -0.90320981        1 
H       3.76136460       0.98562597      -1.00456609        1 
H       3.90773299      -0.78308166      -1.25861125        1 
H      -2.27920297      -3.58701114      -0.09918875        1 
H       0.19204410      -3.33690925       0.14085145        1 
C      -3.01106036       1.00165840      -0.18496615        6 
H      -2.85575739       1.59087223      -1.09032922        1 
H      -2.86965618       1.67529659       0.66356789        1 
H      -4.04567992       0.65518945      -0.16953898        1 
