27
Lattice="0.0 0.0 0.0 0.0 0.0 0.0 0.0 0.0 0.0" Properties=species:S:1:pos:R:3:Z:I:1 pbc="F F F"
C       0.31831525      -1.12321936       0.00426105        6 
C      -0.69360153      -0.14737056       0.06508374        6 
C       1.77104441      -0.79418007       0.20766325        6 
C      -0.26425245       1.27195167       0.26222343        6 
O       2.28332455      -0.15472508      -0.85980745        8 
O       2.39837569      -1.09726754       1.18966301        8 
O      -1.04672108       2.14900903      -0.39696198        8 
O       0.69313401       1.60935134       0.91920122        8 
C      -0.69728994       3.53780142      -0.24962556        6 
C       3.64635484       0.29114263      -0.72301576        6 
C      -0.00390907      -2.46744154      -0.16976741        6 
C      -1.33490200      -2.84924749      -0.28811053        6 
C      -2.33844126      -1.89099096      -0.20478839        6 
C      -2.04928162      -0.53374214      -0.02962803        6 
H      -0.71884844       3.82708053       0.80197220        1 
H       3.72334537       0.99346725       0.10823979        1 
H      -3.37655284      -2.19947661      -0.26583334        1 
H       0.29944759       3.72264794      -0.65263992        1 
H      -1.44730888       4.08510457      -0.81616089        1 
H       3.88696292       0.77840632      -1.66519678        1 
H       4.31054315      -0.55620815      -0.54699996        1 
H      -1.59148306      -3.89345840      -0.42671280        1 
H       0.78689495      -3.20728658      -0.20037418        1 
C      -3.20650075       0.43246443       0.08603952        6 
H      -3.31225661       1.03492239      -0.81860279        1 
H      -3.07661396       1.12680693       0.91793348        1 
H      -4.13601797      -0.11723254       0.24417765        1 
