27
Lattice="0.0 0.0 0.0 0.0 0.0 0.0 0.0 0.0 0.0" Properties=species:S:1:pos:R:3:Z:I:1 pbc="F F F"
C       0.64125040      -0.79794141      -0.00440947        6 
C      -0.68163304      -0.33639026       0.08315991        6 
C       1.76231165       0.18460078       0.00269127        6 
C      -0.99647060       1.11224622       0.34868672        6 
O       2.96928707      -0.41597695       0.06101600        8 
O       1.62539168       1.38577098      -0.04503851        8 
O      -1.31889978       1.75653191      -0.78473016        8 
O      -1.02971135       1.60228858       1.44918633        8 
C      -1.59912404       3.16301942      -0.64585101        6 
C       4.10908855       0.46161454       0.05752085        6 
C       0.89048687      -2.16794061      -0.15168421        6 
C      -0.16770910      -3.06437830      -0.21504184        6 
C      -1.47717478      -2.59913551      -0.12928178        6 
C      -1.75690371      -1.23895666       0.02586777        6 
H      -2.42882110       3.32157512       0.04462670        1 
H       4.13599824       1.04758805      -0.86250645        1 
H      -2.30157294      -3.30301413      -0.17741784        1 
H      -0.71301003       3.68033227      -0.27590623        1 
H      -1.85720887       3.50630975      -1.64508619        1 
H       4.97576716      -0.19251142       0.12138111        1 
H       4.07197122       1.13724192       0.91316829        1 
H       0.02419407      -4.12461126      -0.33349376        1 
H       1.91206024      -2.51479081      -0.22103363        1 
C      -3.18548361      -0.76171642       0.14014901        6 
H      -3.42585791      -0.04294860      -0.64774472        1 
H      -3.36021363      -0.26631965       1.09962534        1 
H      -3.88130776      -1.59842324       0.06121421        1 
