27
Lattice="0.0 0.0 0.0 0.0 0.0 0.0 0.0 0.0 0.0" Properties=species:S:1:pos:R:3:Z:I:1 pbc="F F F"
C       0.68168463      -0.77433298      -0.03610992        6 
C      -0.65160519      -0.30818644      -0.03418765        6 
C       1.84585652       0.12435524      -0.35056791        6 
C      -0.83339121       1.16959989       0.13231699        6 
O       2.78832357       0.05895591       0.60773604        8 
O       1.95874443       0.74741035      -1.37560294        8 
O      -2.09469726       1.59027664      -0.09049649        8 
O       0.06293823       1.93146474       0.41294167        8 
C      -2.31481531       3.00686589       0.03892919        6 
C       3.97042093       0.84767216       0.37300292        6 
C       0.96057604      -2.13619915       0.03202358        6 
C      -0.08167950      -3.05571674       0.08320819        6 
C      -1.39402592      -2.60722992       0.06036256        6 
C      -1.71377510      -1.24281300       0.01819657        6 
H      -2.07771881       3.33949081       1.05060496        1 
H       4.47211992       0.52058512      -0.53921805        1 
H      -2.20340143      -3.32803676       0.09574218        1 
H      -1.69505605       3.55316374      -0.67312765        1 
H      -3.37083956       3.15437243      -0.17695198        1 
H       4.60437962       0.68294348       1.24134636        1 
H       3.70590044       1.90182053       0.28166926        1 
H       0.12935812      -4.11802226       0.13330501        1 
H       1.99033086      -2.47115966       0.02515891        1 
C      -3.18305493      -0.88386947       0.05350233        6 
H      -3.48128580      -0.32149881      -0.83215935        1 
H      -3.42993445      -0.26308371       0.91670011        1 
H      -3.78167743      -1.79501436       0.10399510        1 
