27
Lattice="0.0 0.0 0.0 0.0 0.0 0.0 0.0 0.0 0.0" Properties=species:S:1:pos:R:3:Z:I:1 pbc="F F F"
C      -0.14131390      -1.11689919       0.21716410        6 
C      -0.75557532       0.11674183      -0.08018421        6 
C       1.32169365      -1.39507752       0.03949554        6 
C       0.01527629       1.40372267      -0.15783239        6 
O       2.05779609      -0.29208419      -0.18967659        8 
O       1.78814946      -2.51098860      -0.00532592        8 
O       0.58757626       1.68060071       1.02866777        8 
O       0.01060227       2.16382547      -1.09572571        8 
C       1.38066150       2.87794736       1.07993381        6 
C       3.44138252      -0.51215034      -0.51701631        6 
C      -0.93481999      -2.24504279       0.45032610        6 
C      -2.31854088      -2.15256218       0.41020803        6 
C      -2.91784275      -0.93947322       0.08809402        6 
C      -2.15855735       0.20824329      -0.15998923        6 
H       2.22838425       2.79385496       0.39709899        1 
H       3.96183974      -0.97460239       0.32285006        1 
H      -3.99927767      -0.87173941       0.03444912        1 
H       0.78441905       3.74966253       0.80698923        1 
H       1.72562650       2.95316461       2.10868247        1 
H       3.84789180       0.47469773      -0.72610636        1 
H       3.52611155      -1.15707924      -1.39246681        1 
H      -2.92899447      -3.02708892       0.60429323        1 
H      -0.44335162      -3.19189171       0.63225104        1 
C      -2.86064093       1.50684552      -0.48273217        6 
H      -2.59651035       1.86053980      -1.48098633        1 
H      -2.58571306       2.29945276       0.21903646        1 
H      -3.94260519       1.37521632      -0.43338391        1 
