27
Lattice="0.0 0.0 0.0 0.0 0.0 0.0 0.0 0.0 0.0" Properties=species:S:1:pos:R:3:Z:I:1 pbc="F F F"
C      -0.13734047      -1.04898656      -0.08895421        6 
C      -0.83071185       0.16759869      -0.02030734        6 
C       1.34641464      -1.14440456      -0.30798899        6 
C      -0.13985841       1.46281172      -0.33752377        6 
O       2.03344911      -0.86119006       0.81057024        8 
O       1.85703267      -1.50936433      -1.33936566        8 
O       0.79892476       1.78137351       0.56987920        8 
O      -0.38457329       2.13200946      -1.31239711        8 
C       1.56861417       2.96726081       0.29249851        6 
C       3.46655769      -0.95858805       0.71153915        6 
C      -0.82914171      -2.25653556       0.02843628        6 
C      -2.20065584      -2.25148267       0.24834878        6 
C      -2.88580933      -1.04248450       0.32874148        6 
C      -2.22587068       0.17771926       0.17210007        6 
H       2.08759855       2.86662149      -0.66202891        1 
H       3.76370118      -1.97796091       0.45986224        1 
H      -3.95692192      -1.04268328       0.49957337        1 
H       0.92151326       3.84476387       0.25765560        1 
H       2.27927374       3.04605120       1.11194404        1 
H       3.84223015      -0.68066811       1.69357324        1 
H       3.84256779      -0.27731062      -0.05344475        1 
H      -2.73666101      -3.18788238       0.35387684        1 
H      -0.28779616      -3.19180882      -0.05033806        1 
C      -3.00759851       1.46898494       0.20287817        6 
H      -3.02890199       1.93389709      -0.78564617        1 
H      -2.56345099       2.19328140       0.89130470        1 
H      -4.03524999       1.28787797       0.52218128        1 
