27
Lattice="0.0 0.0 0.0 0.0 0.0 0.0 0.0 0.0 0.0" Properties=species:S:1:pos:R:3:Z:I:1 pbc="F F F"
C       0.52126599      -0.67801837      -0.23380671        6 
C      -0.76967072      -0.23109400       0.14259452        6 
C       1.75357534       0.15506675       0.01764131        6 
C      -1.13296506       1.22629728       0.22661193        6 
O       2.79229493      -0.65376184       0.34972354        8 
O       1.87439263       1.35209622      -0.05631581        8 
O      -0.62867355       1.90053276      -0.81584045        8 
O      -1.94143106       1.69864256       0.99407431        8 
C      -0.89356071       3.31170039      -0.85354159        6 
C       4.04685103       0.00625968       0.58913330        6 
C       0.71368227      -2.01655907      -0.58764035        6 
C      -0.35443600      -2.90398411      -0.60178630        6 
C      -1.60692514      -2.47636605      -0.18568475        6 
C      -1.84337235      -1.14856265       0.19043391        6 
H      -1.96742561       3.50238370      -0.89049775        1 
H       4.36549532       0.55754041      -0.29700033        1 
H      -2.43373286      -3.17789613      -0.16390043        1 
H      -0.46774060       3.79629185       0.02634771        1 
H      -0.40510847       3.67019668      -1.75648194        1 
H       4.75062193      -0.79046451       0.82051275        1 
H       3.96027200       0.69758572       1.42877206        1 
H      -0.20253734      -3.93358229      -0.90508239        1 
H       1.70847499      -2.36021262      -0.83256831        1 
C      -3.25017492      -0.76500543       0.59169807        6 
H      -3.65029480       0.03347691      -0.03784495        1 
H      -3.28637386      -0.39725772       1.61758354        1 
H      -3.90835000      -1.63127918       0.50444450        1 
