27
Lattice="0.0 0.0 0.0 0.0 0.0 0.0 0.0 0.0 0.0" Properties=species:S:1:pos:R:3:Z:I:1 pbc="F F F"
C       0.70392240      -0.75296215       0.02669528        6 
C      -0.64109169      -0.34023085       0.05039073        6 
C       1.78913791       0.26572201      -0.09857487        6 
C      -0.99160476       1.09053013       0.35841559        6 
O       3.00897616      -0.26141495       0.13979682        8 
O       1.61640744       1.42500494      -0.39295313        8 
O      -1.70803047       1.65338402      -0.63102897        8 
O      -0.68880705       1.65042147       1.38137757        8 
C      -2.07435335       3.03247713      -0.43167016        6 
C       4.11982711       0.64274123       0.00832339        6 
C       1.01222147      -2.11419704      -0.05329029        6 
C      -0.00619437      -3.05854146      -0.09975612        6 
C      -1.33342072      -2.64576134      -0.07825291        6 
C      -1.67532992      -1.29147430       0.00518164        6 
H      -2.69235871       3.13883585       0.46141474        1 
H       4.18060070       1.02529397      -1.01190287        1 
H      -2.12662592      -3.38536599      -0.11215221        1 
H      -1.17814232       3.64512464      -0.32747813        1 
H      -2.63271833       3.31428569      -1.32154607        1 
H       5.00138214       0.05340981       0.25066579        1 
H       4.01323203       1.47953436       0.69988329        1 
H       0.23369914      -4.11391446      -0.16038892        1 
H       2.04845904      -2.42028936      -0.09280214        1 
C      -3.13292329      -0.89578607       0.07291872        6 
H      -3.42995983      -0.32889092      -0.81204783        1 
H      -3.33778859      -0.26766996       0.94466893        1 
H      -3.76617922      -1.78155568       0.14355356        1 
