27
Lattice="0.0 0.0 0.0 0.0 0.0 0.0 0.0 0.0 0.0" Properties=species:S:1:pos:R:3:Z:I:1 pbc="F F F"
C       0.09954516      -1.08376989      -0.19289388        6 
C      -0.75563585      -0.01761629       0.10120734        6 
C       1.58097185      -0.88075850      -0.33673161        6 
C      -0.19703283       1.36466322       0.29427516        6 
O       2.18678385      -0.90078921       0.86178411        8 
O       2.15720774      -0.73749029      -1.38722123        8 
O      -0.19331922       2.03959006      -0.86962468        8 
O       0.18897910       1.82077664       1.34189616        8 
C       0.33741687       3.37950974      -0.82881093        6 
C       3.61634938      -0.71297518       0.85631463        6 
C      -0.42009948      -2.36405767      -0.38911199        6 
C      -1.78911188      -2.57782079      -0.27700690        6 
C      -2.63697637      -1.51527227       0.02488477        6 
C      -2.14086888      -0.22329290       0.21245819        6 
H      -0.25543539       4.00268290      -0.15739020        1 
H       4.10157135      -1.51691680       0.30056992        1 
H      -3.70451999      -1.68688510       0.11277725        1 
H       1.37349925       3.36480602      -0.48791226        1 
H       0.27527361       3.74408582      -1.85124669        1 
H       3.91180253      -0.73306974       1.90233162        1 
H       3.87127183       0.24503642       0.40155809        1 
H      -2.19608393      -3.57168854      -0.42410864        1 
H       0.24694198      -3.18416063      -0.62691073        1 
C      -3.07111257       0.92287278       0.52666053        6 
H      -3.05561171       1.67306645      -0.27008738        1 
H      -2.78210223       1.42233312       1.45537480        1 
H      -4.09808882       0.57156655       0.63647581        1 
