27
Lattice="0.0 0.0 0.0 0.0 0.0 0.0 0.0 0.0 0.0" Properties=species:S:1:pos:R:3:Z:I:1 pbc="F F F"
C       0.52496341      -0.92096658       0.04469856        6 
C      -0.68056790      -0.20398764       0.13438134        6 
C       1.87219574      -0.30911518       0.31785332        6 
C      -0.62615071       1.28989141       0.25876589        6 
O       2.57772693      -0.17318208      -0.82601555        8 
O       2.28668094      -0.01292850       1.40615196        8 
O      -1.43749070       1.88041160      -0.64853164        8 
O       0.05906360       1.91071314       1.03194737        8 
C      -1.47044570       3.31897902      -0.61806027        6 
C       3.90623017       0.36765334      -0.67965250        6 
C       0.50681310      -2.29483265      -0.20100972        6 
C      -0.70460095      -2.96576596      -0.31353482        6 
C      -1.89719780      -2.26431584      -0.17880587        6 
C      -1.91304405      -0.88206731       0.02739960        6 
H      -1.79876538       3.67375484       0.36023555        1 
H       3.86146123       1.36308687      -0.23609525        1 
H      -2.84110472      -2.79533511      -0.24083141        1 
H      -0.48127636       3.72654330      -0.83216418        1 
H      -2.17947687       3.60762482      -1.39080211        1 
H       4.31269614       0.41038554      -1.68757349        1 
H       4.51301628      -0.28103924      -0.04574616        1 
H      -0.71975650      -4.03504011      -0.49179711        1 
H       1.44196610      -2.83529681      -0.28596520        1 
C      -3.24894522      -0.18512197       0.15125458        6 
H      -3.51718507       0.32136796      -0.77868131        1 
H      -3.24731269       0.56867869       0.94111348        1 
H      -4.02932481      -0.91286167       0.38202349        1 
