27
Lattice="0.0 0.0 0.0 0.0 0.0 0.0 0.0 0.0 0.0" Properties=species:S:1:pos:R:3:Z:I:1 pbc="F F F"
C       0.65006709      -0.78348027      -0.17159554        6 
C      -0.64625625      -0.24699984      -0.07479294        6 
C       1.87039212       0.08673352      -0.24033224        6 
C      -0.92536005       1.21440682      -0.30175807        6 
O       2.83198965      -0.39255324       0.58746678        8 
O       2.03030546       1.05015649      -0.94489578        8 
O      -1.44603044       1.78340049       0.80990766        8 
O      -0.72112234       1.81091835      -1.32458707        8 
C      -1.80184398       3.17444181       0.69025070        6 
C       4.08808407       0.30837148       0.55521364        6 
C       0.83595271      -2.16699670      -0.07694413        6 
C      -0.25548124      -3.01484384       0.05280562        6 
C      -1.53696306      -2.48162775       0.13824261        6 
C      -1.75538298      -1.10308714       0.08177581        6 
H      -0.92661446       3.76967833       0.42686218        1 
H       4.51737541       0.27670501      -0.44768660        1 
H      -2.38932488      -3.14445994       0.24370642        1 
H      -2.56782266       3.30586574      -0.07613606        1 
H      -2.18381974       3.46039986       1.66766516        1 
H       4.72723706      -0.21299393       1.26440648        1 
H       3.95261998       1.34912875       0.85286372        1 
H      -0.10865578      -4.08787831       0.09771381        1 
H       1.84029721      -2.56742008      -0.10717995        1 
C      -3.16832570      -0.57143732       0.16341206        6 
H      -3.37433948       0.15167931      -0.63044536        1 
H      -3.34630213      -0.06805936       1.11670498        1 
H      -3.88810540      -1.38598446       0.06685093        1 
