27
Lattice="0.0 0.0 0.0 0.0 0.0 0.0 0.0 0.0 0.0" Properties=species:S:1:pos:R:3:Z:I:1 pbc="F F F"
C       0.57908341      -0.92887049      -0.25733809        6 
C      -0.60005905      -0.23329863       0.08171546        6 
C       1.94994304      -0.31288952      -0.32945432        6 
C      -0.58461597       1.26678014      -0.00771622        6 
O       2.32816823       0.16753930       0.86138895        8 
O       2.67870272      -0.40002511      -1.29015253        8 
O      -1.73216565       1.73282969      -0.54964433        8 
O       0.32809899       1.99485396       0.29852978        8 
C      -1.81450606       3.15918255      -0.72041435        6 
C       3.62166868       0.79495757       0.90829701        6 
C       0.55266018      -2.31151597      -0.44005783        6 
C      -0.62330258      -3.01951910      -0.22440338        6 
C      -1.76779596      -2.34542474       0.18277982        6 
C      -1.79229951      -0.95334919       0.31867168        6 
H      -1.73334572       3.66591543       0.24255986        1 
H       4.39910075       0.09835120       0.59101999        1 
H      -2.67455824      -2.90499697       0.38697363        1 
H      -1.01809378       3.50986449      -1.37820302        1 
H      -2.78922713       3.33898529      -1.16866838        1 
H       3.76222879       1.08626997       1.94643018        1 
H       3.63003070       1.67281527       0.26073325        1 
H      -0.64249539      -4.09577060      -0.35359807        1 
H       1.46240125      -2.82284929      -0.72909031        1 
C      -3.09549035      -0.30974322       0.73876068        6 
H      -3.63364673       0.09110451      -0.12286234        1 
H      -2.94268706       0.51556070       1.43524004        1 
H      -3.73222904      -1.05165208       1.22494431        1 
