27
Lattice="0.0 0.0 0.0 0.0 0.0 0.0 0.0 0.0 0.0" Properties=species:S:1:pos:R:3:Z:I:1 pbc="F F F"
C      -0.13739871      -0.98191763      -0.11694111        6 
C      -0.89031178       0.20786227      -0.04493228        6 
C       1.35459444      -1.03095024      -0.31309139        6 
C      -0.21684149       1.53914073       0.04647126        6 
O       1.99659895      -1.03371681       0.87133869        8 
O       1.90131721      -1.11395781      -1.38223986        8 
O       1.02421315       1.51662671      -0.47833488        8 
O      -0.69652385       2.53217427       0.54399916        8 
C       1.79103346       2.72611319      -0.36638629        6 
C       3.43425564      -1.08683082       0.80398980        6 
C      -0.77391716      -2.22248553      -0.09696527        6 
C      -2.15850905      -2.29361995      -0.01136821        6 
C      -2.90647198      -1.12396030       0.04029592        6 
C      -2.30257514       0.13683601       0.03530715        6 
H       1.28912013       3.54451728      -0.88423335        1 
H       3.76021605      -1.99604904       0.29681386        1 
H      -3.98807445      -1.18343457       0.08988502        1 
H       1.92848489       2.99415611       0.68244102        1 
H       2.74562137       2.50392596      -0.83822406        1 
H       3.77290126      -1.08059503       1.83748240        1 
H       3.81869183      -0.21865022       0.26630215        1 
H      -2.65375709      -3.25799098       0.00475769        1 
H      -0.18213743      -3.12820140      -0.15853488        1 
C      -3.19705695       1.35184529       0.10341353        6 
H      -2.94814172       2.08715270      -0.66356449        1 
H      -3.09847478       1.86173396       1.06332452        1 
H      -4.23830627       1.05182446      -0.02934577        1 
