27
Lattice="0.0 0.0 0.0 0.0 0.0 0.0 0.0 0.0 0.0" Properties=species:S:1:pos:R:3:Z:I:1 pbc="F F F"
C       0.53522542      -0.70939076      -0.21224524        6 
C      -0.75481093      -0.25560931       0.14274172        6 
C       1.74473342       0.14705660       0.03892438        6 
C      -1.09308603       1.20577585       0.25564498        6 
O       2.82889257      -0.62529085       0.29179090        8 
O       1.80338777       1.35235259       0.01535711        8 
O      -0.72670260       1.86043205      -0.85624934        8 
O      -1.77970437       1.69195015       1.12447870        8 
C      -0.96487553       3.27771428      -0.86758377        6 
C       4.06056629       0.08007574       0.52279774        6 
C       0.72790816      -2.05353962      -0.54662681        6 
C      -0.34707374      -2.93254877      -0.56900864        6 
C      -1.60766668      -2.48954850      -0.18970140        6 
C      -1.83933205      -1.15677905       0.16866829        6 
H      -2.01974608       3.49419807      -0.69306252        1 
H       4.32811642       0.67883650      -0.34931023        1 
H      -2.44099601      -3.18382032      -0.18242025        1 
H      -0.35968893       3.76004410      -0.09841778        1 
H      -0.65891608       3.61298423      -1.85588832        1 
H       4.80474509      -0.69300308       0.70170687        1 
H       3.96868218       0.73325309       1.39179551        1 
H      -0.19704984      -3.96767868      -0.85383950        1 
H       1.72477122      -2.40468226      -0.77224961        1 
C      -3.24516318      -0.73654872       0.53296934        6 
H      -3.59774170       0.08532244      -0.09558334        1 
H      -3.30028536      -0.38631289       1.56477985        1 
H      -3.93102481      -1.57651101       0.41013195        1 
