27
Lattice="0.0 0.0 0.0 0.0 0.0 0.0 0.0 0.0 0.0" Properties=species:S:1:pos:R:3:Z:I:1 pbc="F F F"
C       0.23252086      -0.87387019       0.07597920        6 
C      -0.93320843      -0.07219409       0.08080123        6 
C       1.62220570      -0.39381755       0.39967973        6 
C      -0.86675508       1.41232976      -0.12874445        6 
O       2.47855226      -0.70554721      -0.59827715        8 
O       1.95556629       0.12632484       1.43189960        8 
O       0.32027180       1.94237684       0.20449193        8 
O      -1.75652896       2.07004637      -0.62166986        8 
C       0.48910439       3.34631628      -0.04978193        6 
C       3.86333700      -0.39439290      -0.35548711        6 
C       0.12698435      -2.26212282      -0.03154237        6 
C      -1.12002517      -2.87324686      -0.07367167        6 
C      -2.26584307      -2.09454973       0.00079802        6 
C      -2.20382169      -0.69774843       0.05360313        6 
H       0.39116297       3.55665642      -1.11628369        1 
H       3.98803710       0.67484139      -0.17854989        1 
H      -3.23975801      -2.57148340      -0.00221709        1 
H      -0.25432822       3.92528362       0.49965152        1 
H       1.49190666       3.58012343       0.30045554        1 
H       4.39018111      -0.69914569      -1.25692653        1 
H       4.23191133      -0.94589028       0.51114588        1 
H      -1.19607368      -3.95229840      -0.14666058        1 
H       1.02890246      -2.86083898      -0.05535731        1 
C      -3.51417952       0.05497580       0.08149240        6 
H      -3.73730405       0.49445634      -0.89266765        1 
H      -3.50364572       0.87793347       0.79658883        1 
H      -4.32231947      -0.62970055       0.34787162        1 
