27
Lattice="0.0 0.0 0.0 0.0 0.0 0.0 0.0 0.0 0.0" Properties=species:S:1:pos:R:3:Z:I:1 pbc="F F F"
C       0.34005291      -0.94935132       0.21022822        6 
C      -0.78631249      -0.12635456       0.08130603        6 
C       1.70441407      -0.34694141       0.32078234        6 
C      -0.68486584       1.35809593       0.30658740        6 
O       2.55789565      -0.92670973      -0.55084317        8 
O       2.03496673       0.50118666       1.11354372        8 
O      -0.39859891       2.00717259      -0.83973919        8 
O      -0.82564331       1.89578326       1.37329563        8 
C      -0.22450692       3.43436952      -0.72398691        6 
C       3.92502956      -0.48037678      -0.48012530        6 
C       0.20421032      -2.33683889       0.10313540        6 
C      -1.05285710      -2.89850023      -0.07935636        6 
C      -2.16988522      -2.07590700      -0.20288825        6 
C      -2.05897682      -0.68619340      -0.12341799        6 
H      -1.14597344       3.90226487      -0.37417966        1 
H       3.98740936       0.58823173      -0.69006217        1 
H      -3.14787599      -2.51795111      -0.36161533        1 
H       0.58220086       3.65715484      -0.02467800        1 
H       0.02454326       3.77685203      -1.72576442        1 
H       4.45423730      -1.05221873      -1.23898514        1 
H       4.33779068      -0.67656454       0.51066311        1 
H      -1.16287743      -3.97510765      -0.14145215        1 
H       1.08441935      -2.96392256       0.16153878        1 
C      -3.28116822       0.19235969      -0.24297357        6 
H      -3.15371762       0.94400475      -1.02712175        1 
H      -3.47405482       0.72413045       0.69330038        1 
H      -4.16503611      -0.40016678      -0.48431171        1 
