27
Lattice="0.0 0.0 0.0 0.0 0.0 0.0 0.0 0.0 0.0" Properties=species:S:1:pos:R:3:Z:I:1 pbc="F F F"
C       0.37624328      -0.85763752       0.25813141        6 
C      -0.78889908      -0.14513085      -0.06352301        6 
C       1.73410085      -0.21578918       0.23108702        6 
C      -0.76533509       1.33721463      -0.31094574        6 
O       2.52610795      -0.85819352      -0.65580471        8 
O       2.11234161       0.69957643       0.91844121        8 
O      -0.48638661       2.01324668       0.80990330        8 
O      -1.03848124       1.85644311      -1.36821287        8 
C      -0.39133275       3.44457584       0.68696742        6 
C       3.88533287      -0.38949074      -0.74253137        6 
C       0.30956903      -2.23443332       0.48972524        6 
C      -0.91653271      -2.88574718       0.45611091        6 
C      -2.06963201      -2.17614829       0.13389527        6 
C      -2.02883460      -0.80783677      -0.14330599        6 
H       0.39421607       3.70848614      -0.02226422        1 
H       3.90833489       0.65253835      -1.06489211        1 
H      -3.02317648      -2.69168143       0.09244347        1 
H      -1.34108860       3.86296480       0.35008121        1 
H      -0.14125606       3.80084803       1.68318040        1 
H       4.36302110      -1.02927628      -1.48096886        1 
H       4.38182022      -0.47750996       0.22519263        1 
H      -0.97321079      -3.94856404       0.66189637        1 
H       1.21876844      -2.78646734       0.69215163        1 
C      -3.29668602      -0.07484533      -0.51182667        6 
H      -3.24398400       0.31060227      -1.53245681        1 
H      -3.47368349       0.78128257       0.14597284        1 
H      -4.15856102      -0.73976127      -0.43548102        1 
