27
Lattice="0.0 0.0 0.0 0.0 0.0 0.0 0.0 0.0 0.0" Properties=species:S:1:pos:R:3:Z:I:1 pbc="F F F"
C       0.01788196      -1.22536429       0.08894101        6 
C      -0.69406311      -0.00910525       0.04335520        6 
C       1.51045058      -1.33812459       0.01266118        6 
C      -0.02074778       1.28899523       0.39034058        6 
O       2.11104436      -0.17017035      -0.27393687        8 
O       2.11150379      -2.38557571       0.09138763        8 
O      -0.16482961       2.20865086      -0.58371619        8 
O       0.57210621       1.48892188       1.42046729        8 
C       0.45111326       3.48529020      -0.33189719        6 
C       3.54372330      -0.20391174      -0.38416412        6 
C      -0.67327776      -2.43733504       0.00825053        6 
C      -2.05667226      -2.45242738      -0.10558350        6 
C      -2.75470792      -1.25165061      -0.15938473        6 
C      -2.09711022      -0.01944516      -0.07703068        6 
H       0.01970323       3.95020449       0.55607160        1 
H       3.98756348      -0.52559375       0.55887541        1 
H      -3.83580668      -1.26296650      -0.24911891        1 
H       1.52505414       3.36180383      -0.18570955        1 
H       0.24950615       4.08453105      -1.21695516        1 
H       3.83847146       0.81667012      -0.61742404        1 
H       3.84873498      -0.88616083      -1.17903881        1 
H      -2.58891865      -3.39501215      -0.16263809        1 
H      -0.10137634      -3.35610098       0.01730528        1 
C      -2.91561584       1.25139049      -0.07848888        6 
H      -2.74041860       1.83671794      -0.98378736        1 
H      -2.66849251       1.89179942       0.77293497        1 
H      -3.97995054       1.01812505      -0.02020636        1 
