27
Lattice="0.0 0.0 0.0 0.0 0.0 0.0 0.0 0.0 0.0" Properties=species:S:1:pos:R:3:Z:I:1 pbc="F F F"
C       0.57896734      -0.91754190      -0.21491431        6 
C      -0.64194035      -0.27044046       0.04541220        6 
C       1.86990982      -0.16169553      -0.38088100        6 
C      -0.62040066       1.22518474       0.07951406        6 
O       2.53094192      -0.08057275       0.78235471        8 
O       2.29925190       0.21951861      -1.44210550        8 
O      -1.74746468       1.77075957      -0.41711590        8 
O       0.31038464       1.88742117       0.47724421        8 
C      -1.79816007       3.20980197      -0.43345245        6 
C       3.76607580       0.65969330       0.75039141        6 
C       0.63497992      -2.30395270      -0.33515824        6 
C      -0.52263441      -3.05655477      -0.17480544        6 
C      -1.72582020      -2.42351471       0.11533604        6 
C      -1.81909073      -1.03202302       0.22035073        6 
H      -1.70535205       3.60554785       0.57893032        1 
H       4.45936691       0.21945970       0.03213958        1 
H      -2.62030740      -3.01875772       0.26442339        1 
H      -0.99393273       3.60994865      -1.05205177        1 
H      -2.76881407       3.45771941      -0.85702926        1 
H       4.16488277       0.59817510       1.76026595        1 
H       3.56637201       1.69686808       0.47800254        1 
H      -0.48544541      -4.13651326      -0.26353770        1 
H       1.58076096      -2.78776446      -0.54785962        1 
C      -3.16881772      -0.43221037       0.54459844        6 
H      -3.61969044       0.02637940      -0.33816240        1 
H      -3.10016122       0.34482064       1.30762610        1 
H      -3.84172759      -1.21048771       0.90944229        1 
