27
Lattice="0.0 0.0 0.0 0.0 0.0 0.0 0.0 0.0 0.0" Properties=species:S:1:pos:R:3:Z:I:1 pbc="F F F"
C       0.27750473      -1.07374873      -0.19859225        6 
C      -0.69785509      -0.12124431       0.11801339        6 
C       1.72404628      -0.70206048      -0.36284845        6 
C      -0.31441865       1.32451495       0.26048770        6 
O       2.33107625      -0.58124195       0.82577303        8 
O       2.27779654      -0.57214286      -1.42820253        8 
O      -0.75437052       2.03647109      -0.79566084        8 
O       0.29053895       1.80284498       1.18772837        8 
C      -0.46422288       3.44833122      -0.77388819        6 
C       3.72257592      -0.20702449       0.79603891        6 
C      -0.08289862      -2.40796537      -0.39269940        6 
C      -1.41019074      -2.79242809      -0.24294223        6 
C      -2.37584590      -1.84568160       0.08662952        6 
C      -2.04518802      -0.49903790       0.25458770        6 
H      -0.93907285       3.92047522       0.08778483        1 
H       4.31065625      -0.97231576       0.28686476        1 
H      -3.40920430      -2.15300811       0.20782306        1 
H       0.61293590       3.61285530      -0.72717452        1 
H      -0.87258399       3.84021756      -1.70234030        1 
H       4.01797838      -0.12201122       1.83875356        1 
H       3.84675265       0.74680579       0.28176652        1 
H      -1.69341081      -3.82970183      -0.38116441        1 
H       0.67502162      -3.13622990      -0.65576527        1 
C      -3.11964119       0.51364033       0.56966231        6 
H      -3.33185791       1.13882841      -0.30227501        1 
H      -2.82248391       1.17840042       1.38532488        1 
H      -4.04486560       0.01504930       0.86356046        1 
