27
Lattice="0.0 0.0 0.0 0.0 0.0 0.0 0.0 0.0 0.0" Properties=species:S:1:pos:R:3:Z:I:1 pbc="F F F"
C       0.46687850      -0.87307177       0.25954192        6 
C      -0.72420011      -0.22552608      -0.08611021        6 
C       1.75841010      -0.11452393       0.26877721        6 
C      -0.73090141       1.25664517      -0.33938024        6 
O       2.63722921      -0.65785848      -0.59497649        8 
O       2.01276342       0.82256586       0.98688555        8 
O      -1.00662713       1.93532799       0.78339380        8 
O      -0.56329632       1.76643267      -1.42106539        8 
C      -0.99421942       3.37247035       0.67547734        6 
C       3.93713081      -0.03810755      -0.64737568        6 
C       0.47133204      -2.25031577       0.49288348        6 
C      -0.71997447      -2.96294798       0.43044817        6 
C      -1.90372433      -2.31264822       0.09002159        6 
C      -1.92918732      -0.94167962      -0.17626740        6 
H       0.00327574       3.71452914       0.39667600        1 
H       3.84632591       1.00435810      -0.95491190        1 
H      -2.82768111      -2.87789035       0.02734066        1 
H      -1.71741173       3.70652583      -0.06999010        1 
H      -1.26028827       3.73691252       1.66478163        1 
H       4.49729702      -0.60822293      -1.38477887        1 
H       4.42171516      -0.08591365       0.32909759        1 
H      -0.72628862      -4.02819620       0.63109279        1 
H       1.40299530      -2.75304654       0.72069362        1 
C      -3.21746230      -0.25329729      -0.55671459        6 
H      -3.14433923       0.19779980      -1.55035628        1 
H      -3.46204703       0.54625487       0.14883226        1 
H      -4.04811037      -0.96068957      -0.56576379        1 
