27
Lattice="0.0 0.0 0.0 0.0 0.0 0.0 0.0 0.0 0.0" Properties=species:S:1:pos:R:3:Z:I:1 pbc="F F F"
C       0.58282914      -0.86775317      -0.21814727        6 
C      -0.65968430      -0.29097981       0.07484347        6 
C       1.80456041      -0.00768494      -0.34601965        6 
C      -0.72328511       1.19458947       0.27030729        6 
O       2.70777995      -0.30354155       0.60245345        8 
O       1.98242774       0.79766959      -1.22777762        8 
O      -1.57753324       1.77327151      -0.59122179        8 
O      -0.09576883       1.79908992       1.10676741        8 
C      -1.70846110       3.20459578      -0.48677418        6 
C       3.93128981       0.45782986       0.56462299        6 
C       0.69548630      -2.24713117      -0.38900820        6 
C      -0.43800317      -3.04635220      -0.28951507        6 
C      -1.67123044      -2.47219789       0.00492841        6 
C      -1.80957899      -1.09322096       0.18744771        6 
H      -2.03241493       3.48523464       0.51645075        1 
H       4.44609047       0.30608297      -0.38542558        1 
H      -2.54742266      -3.10455360       0.10063085        1 
H      -0.75479954       3.68543810      -0.70782572        1 
H      -2.45721164       3.47944839      -1.22611842        1 
H       4.52871687       0.08244714       1.39203539        1 
H       3.71559003       1.51898335       0.69481478        1 
H      -0.35952343      -4.11850470      -0.42973595        1 
H       1.66256937      -2.68649413      -0.60053555        1 
C      -3.16482446      -0.51191238       0.51486088        6 
H      -3.55712227       0.06451182      -0.32609777        1 
H      -3.11825870       0.16000557       1.37612971        1 
H      -3.87535902      -1.30649050       0.74890966        1 
