27
Lattice="0.0 0.0 0.0 0.0 0.0 0.0 0.0 0.0 0.0" Properties=species:S:1:pos:R:3:Z:I:1 pbc="F F F"
C       0.75323875       0.65421025      -0.11789284        6 
C      -0.61354961       0.29703903       0.04767182        6 
C       1.84750692      -0.31883345       0.23214420        6 
C      -0.99499429      -1.12532224      -0.27212696        6 
O       3.04942824       0.09446184      -0.23585176        8 
O       1.70482767      -1.34331947       0.84945028        8 
O      -2.19880206      -1.47989761       0.23122228        8 
O      -0.29407374      -1.90016866      -0.87316631        8 
C      -2.60587029      -2.83618177      -0.02302103        6 
C       4.15680135      -0.77526371       0.05674277        6 
C       1.11593233       1.99416556      -0.23522451        6 
C       0.14631701       2.99244745      -0.20204343        6 
C      -1.17987047       2.65009767      -0.00000763        6 
C      -1.59405119       1.31196509       0.10531276        6 
H      -2.68926694      -3.01668987      -1.09596184        1 
H       4.30670277      -0.85545367       1.13486684        1 
H      -1.93200283       3.42992960       0.04916250        1 
H      -1.88392431      -3.53483574       0.40179250        1 
H      -3.57504615      -2.94159096       0.46029583        1 
H       5.02048225      -0.31459164      -0.41782431        1 
H       3.97558689      -1.77017650      -0.35269860        1 
H       0.43200124       4.03285014      -0.30610655        1 
H       2.16343541       2.24784098      -0.31790211        1 
C      -3.08191544       1.06638917       0.24014639        6 
H      -3.31667294       0.50540200       1.14500379        1 
H      -3.47650017       0.48833004      -0.59770160        1 
H      -3.61032822       2.02087820       0.27453429        1 
