27
Lattice="0.0 0.0 0.0 0.0 0.0 0.0 0.0 0.0 0.0" Properties=species:S:1:pos:R:3:Z:I:1 pbc="F F F"
C       0.59099664      -0.92285725       0.25294344        6 
C      -0.61563965      -0.26211518      -0.05133245        6 
C       1.91916445      -0.22250456       0.36123914        6 
C      -0.60719253       1.23464987       0.02173691        6 
O       2.38860893       0.09169275      -0.85457547        8 
O       2.54211776      -0.10061717       1.38801239        8 
O      -1.79222798       1.73318993       0.43009280        8 
O       0.34764022       1.93913999      -0.21035401        8 
C      -1.86255587       3.16509953       0.55956660        6 
C       3.63239678       0.81466292      -0.88076701        6 
C       0.62452256      -2.30852791       0.39363302        6 
C      -0.53090645      -3.05258285       0.18686902        6 
C      -1.71034724      -2.41068163      -0.17049625        6 
C      -1.78908017      -1.01809133      -0.27845924        6 
H      -1.14429992       3.51451219       1.30256777        1 
H       3.50602723       1.77887753      -0.38627120        1 
H      -2.60162313      -2.99857284      -0.36212444        1 
H      -1.65252884       3.64619374      -0.39680165        1 
H      -2.88043493       3.37434514       0.88101686        1 
H       3.86329561       0.95291969      -1.93449948        1 
H       4.41932413       0.24635245      -0.38274509        1 
H      -0.50858460      -4.13192618       0.28707038        1 
H       1.55755081      -2.79628130       0.64839019        1 
C      -3.12450243      -0.41928295      -0.66129762        6 
H      -3.02135749       0.37970192      -1.39655232        1 
H      -3.63047706       0.00842049       0.20675076        1 
H      -3.76615403      -1.19414386      -1.08520859        1 
