27
Lattice="0.0 0.0 0.0 0.0 0.0 0.0 0.0 0.0 0.0" Properties=species:S:1:pos:R:3:Z:I:1 pbc="F F F"
C       0.01220029      -1.03193187      -0.19163629        6 
C      -0.82975128       0.06185456       0.04172911        6 
C       1.50200683      -0.87612615      -0.31955943        6 
C      -0.25155768       1.42534859       0.28651656        6 
O       2.10586929      -1.07833160       0.86777210        8 
O       2.08894968      -0.62465725      -1.34117351        8 
O       0.28689937       1.93409859      -0.83386917        8 
O      -0.25725051       1.99135852       1.35307455        8 
C       0.93201597       3.21626697      -0.71041926        6 
C       3.54476930      -0.98878739       0.87085505        6 
C      -0.52747333      -2.30997908      -0.34537122        6 
C      -1.90368723      -2.49223943      -0.27812484        6 
C      -2.73871787      -1.40269783      -0.04615501        6 
C      -2.22182349      -0.11753032       0.13080516        6 
H       0.21500856       3.97406957      -0.39117493        1 
H       3.97298912      -1.74061486       0.20614758        1 
H      -3.81235264      -1.54925833       0.00337455        1 
H       1.74653208       3.16266449       0.01353056        1 
H       1.31540352       3.44014160      -1.70286804        1 
H       3.84170445      -1.17161576       1.90082033        1 
H       3.86507171       0.00252339       0.54742850        1 
H      -2.32594419      -3.48245197      -0.40582851        1 
H       0.12941791      -3.15349036      -0.52217672        1 
C      -3.14375669       1.04430207       0.41196555        6 
H      -2.95835089       1.87895345      -0.27010680        1 
H      -2.99992685       1.41915666       1.42851924        1 
H      -4.18703861       0.74502819       0.30002723        1 
