27
Lattice="0.0 0.0 0.0 0.0 0.0 0.0 0.0 0.0 0.0" Properties=species:S:1:pos:R:3:Z:I:1 pbc="F F F"
C       0.71802086      -0.70720912      -0.03280624        6 
C      -0.63660271      -0.29887182       0.03136107        6 
C       1.83831680       0.24176656       0.28426468        6 
C      -0.92264162       1.15173081      -0.23357138        6 
O       2.95131880      -0.05920455      -0.41874190        8 
O       1.77963251       1.13097563       1.09522621        8 
O      -2.13304313       1.54600272       0.21478027        8 
O      -0.14490524       1.91092448      -0.75853629        8 
C      -2.45300800       2.93439380       0.01294158        6 
C       4.09927573       0.76517408      -0.14911399        6 
C       1.04519077      -2.05970907      -0.09663343        6 
C       0.04111349      -3.02328035      -0.09409717        6 
C      -1.28475389      -2.62973142      -0.00980623        6 
C      -1.65674592      -1.27713591       0.03303018        6 
H      -1.73268895       3.56734098       0.53274387        1 
H       3.87101938       1.81063415      -0.36042964        1 
H      -2.06569734      -3.38227702      -0.00270045        1 
H      -2.44395011       3.17937993      -1.05018806        1 
H      -3.44992856       3.06311889       0.42916995        1 
H       4.87990609       0.39978294      -0.81276792        1 
H       4.40348771       0.66742779       0.89445850        1 
H       0.29544516      -4.07599830      -0.14435219        1 
H       2.08670474      -2.35131648      -0.12225018        1 
C      -3.13982068      -0.97543983       0.04479801        6 
H      -3.43712868      -0.35702509      -0.80430243        1 
H      -3.43240560      -0.43414155       0.94512190        1 
H      -3.70554593      -1.90784609       0.00091991        1 
