27
Lattice="0.0 0.0 0.0 0.0 0.0 0.0 0.0 0.0 0.0" Properties=species:S:1:pos:R:3:Z:I:1 pbc="F F F"
C       0.61028639      -0.82789589      -0.08013803        6 
C      -0.65922382      -0.22371202      -0.12093990        6 
C       1.89838937      -0.08707717      -0.30944208        6 
C      -0.78520437       1.26750393      -0.25444085        6 
O       2.69918756      -0.18909181       0.77789546        8 
O       2.21610187       0.47645123      -1.32229658        8 
O      -1.57995156       1.76423246       0.72433205        8 
O      -0.24822935       1.95889015      -1.08012191        8 
C      -1.80724715       3.18473234       0.68794692        6 
C       4.00028485       0.41617042       0.65070591        6 
C       0.72056601      -2.20497636       0.12961865        6 
C      -0.41969012      -2.99060619       0.23524290        6 
C      -1.67445105      -2.39903987       0.14705185        6 
C      -1.82020720      -1.01876053      -0.01312703        6 
H      -0.86325754       3.72505480       0.77061857        1 
H       4.56204320      -0.05549261      -0.15739693        1 
H      -2.56451516      -3.01599865       0.20854454        1 
H      -2.30081004       3.46839987      -0.24335588        1 
H      -2.44761277       3.39653898       1.54135219        1 
H       4.49071031       0.25075417       1.60735903        1 
H       3.90455360       1.48300857       0.44430030        1 
H      -0.33108073      -4.06164453       0.37772542        1 
H       1.70353317      -2.65470363       0.19389280        1 
C      -3.21616642      -0.44198937      -0.08895656        6 
H      -3.30326472       0.31863451      -0.86774341        1 
H      -3.50026930       0.02669464       0.85580498        1 
H      -3.93660995      -1.23168933      -0.31033977        1 
