27
Lattice="0.0 0.0 0.0 0.0 0.0 0.0 0.0 0.0 0.0" Properties=species:S:1:pos:R:3:Z:I:1 pbc="F F F"
C      -0.11619876      -1.03102155      -0.10284968        6 
C      -0.83537689       0.17320187      -0.01052296        6 
C       1.37315276      -1.13983914      -0.28135068        6 
C      -0.19377060       1.49692518      -0.31586091        6 
O       2.04431268      -0.74684479       0.81165014        8 
O       1.89728808      -1.64209057      -1.24745585        8 
O       0.87511416       1.75596867       0.45346966        8 
O      -0.59481383       2.24887584      -1.17312743        8 
C       1.58687152       2.97302651       0.15917623        6 
C       3.47648931      -0.87325867       0.74928351        6 
C      -0.78791373      -2.25413180      -0.02212431        6 
C      -2.15759313      -2.28417716       0.20196089        6 
C      -2.86463666      -1.09213699       0.32128814        6 
C      -2.23220475       0.14557307       0.18941613        6 
H       1.95157482       2.96025227      -0.86914671        1 
H       3.76272994      -1.91534034       0.59825912        1 
H      -3.93386213      -1.11825859       0.50119218        1 
H       0.93827097       3.83897657       0.29860869        1 
H       2.41608823       2.99647761       0.86249142        1 
H       3.83904078      -0.50982025       1.70802222        1 
H       3.87709047      -0.27139169      -0.06821082        1 
H      -2.67397953      -3.23395605       0.28318335        1 
H      -0.22679515      -3.17474892      -0.12730142        1 
C      -3.05699213       1.40872038       0.26582834        6 
H      -3.13045462       1.88584022      -0.71343850        1 
H      -2.61566818       2.14130174       0.94647416        1 
H      -4.06432289       1.18250677       0.61997208        1 
