27
Lattice="0.0 0.0 0.0 0.0 0.0 0.0 0.0 0.0 0.0" Properties=species:S:1:pos:R:3:Z:I:1 pbc="F F F"
C      -0.19758404      -1.01440488      -0.13173929        6 
C      -0.86236678       0.22120907      -0.00063538        6 
C       1.29515847      -1.15162934      -0.23442225        6 
C      -0.09324635       1.50149223       0.01942983        6 
O       1.88854742      -0.87343791       0.94389966        8 
O       1.88289306      -1.51970057      -1.21941123        8 
O       1.06291580       1.39309796      -0.66808598        8 
O      -0.44855342       2.52924080       0.54805858        8 
C       1.92572419       2.54160105      -0.65917512        6 
C       3.32484289      -0.95867199       0.95499897        6 
C      -0.92029838      -2.20486917      -0.18413048        6 
C      -2.30643566      -2.17895104      -0.08754783        6 
C      -2.96616426      -0.96361797       0.04813579        6 
C      -2.27310521       0.25049953       0.09518533        6 
H       1.42539045       3.39797931      -1.11331407        1 
H       3.65052587      -1.96904834       0.70335806        1 
H      -4.04861240      -0.94737036       0.11263369        1 
H       2.21281455       2.79317377       0.36324153        1 
H       2.79480325       2.25117816      -1.24533089        1 
H       3.62285967      -0.70149116       1.96897911        1 
H       3.75040971      -0.25544346       0.23702023        1 
H      -2.87171450      -3.10341183      -0.12361411        1 
H      -0.39327349      -3.14430267      -0.30007869        1 
C      -3.07147692       1.52542930       0.22624539        6 
H      -2.79416109       2.26150752      -0.53063911        1 
H      -2.90284263       1.99938668       1.19478097        1 
H      -4.13635949       1.30804628       0.12303947        1 
