27
Lattice="0.0 0.0 0.0 0.0 0.0 0.0 0.0 0.0 0.0" Properties=species:S:1:pos:R:3:Z:I:1 pbc="F F F"
C       0.19736924      -0.93829104      -0.12259482        6 
C      -0.88034241      -0.04493907      -0.02513807        6 
C       1.59036818      -0.42649186      -0.30383272        6 
C      -0.65057209       1.43052114      -0.17184548        6 
O       2.46118073      -1.08103515       0.49014279        8 
O       1.91812868       0.41844562      -1.10298445        8 
O       0.14270335       1.90108173       0.80922794        8 
O      -1.10871840       2.10710487      -1.05786324        8 
C       0.56751697       3.27068447       0.66780781        6 
C       3.84647867      -0.72111126       0.33179637        6 
C      -0.02533851      -2.31522572      -0.04359067        6 
C      -1.32084767      -2.79804136       0.09600799        6 
C      -2.38837839      -1.90885800       0.18270424        6 
C      -2.19316085      -0.52629064       0.11903814        6 
H       1.17624445       3.37344319      -0.23193427        1 
H       4.17652975      -0.91910945      -0.68922847        1 
H      -3.39677441      -2.29105877       0.30064723        1 
H      -0.29473908       3.93521739       0.60344082        1 
H       1.15431382       3.48505577       1.55809057        1 
H       4.38873573      -1.34325264       1.04007509        1 
H       3.99174700       0.33613134       0.55746553        1 
H      -1.49957829      -3.86615246       0.14472229        1 
H       0.81475925      -2.99543793      -0.09777353        1 
C      -3.37476630       0.40965627       0.20474047        6 
H      -3.54476758       0.90948844      -0.75183154        1 
H      -3.21579351       1.19202460       0.95157016        1 
H      -4.27937780      -0.13700454       0.47621995        1 
