27
Lattice="0.0 0.0 0.0 0.0 0.0 0.0 0.0 0.0 0.0" Properties=species:S:1:pos:R:3:Z:I:1 pbc="F F F"
C       0.19389051      -1.16127495       0.03498172        6 
C      -0.71269587      -0.09847218      -0.10076883        6 
C       1.66509821      -0.97285341      -0.20539552        6 
C      -0.15552838       1.27590585      -0.30819432        6 
O       2.25680899      -0.34914007       0.83161347        8 
O       2.23524586      -1.31724574      -1.20767534        8 
O      -0.67496877       2.16415258       0.56221544        8 
O       0.66410999       1.56691267      -1.14620583        8 
C      -0.20927131       3.52015886       0.42725431        6 
C       3.65029761      -0.02571282       0.65199190        6 
C      -0.26924570      -2.45659844       0.26281997        6 
C      -1.63477217      -2.69285324       0.36930176        6 
C      -2.53386207      -1.64189952       0.21813086        6 
C      -2.09865048      -0.33357362      -0.01128815        6 
H       0.86629864       3.56957476       0.60247434        1 
H       4.23623048      -0.93340479       0.50035378        1 
H      -3.59953128      -1.83599195       0.27507973        1 
H      -0.42820878       3.89977939      -0.57182286        1 
H      -0.74789858       4.08690616       1.18317119        1 
H       3.95031713       0.47621904       1.56898632        1 
H       3.77071325       0.63226902      -0.20974350        1 
H      -2.00001197      -3.69739467       0.55025669        1 
H       0.43882604      -3.27275001       0.34245487        1 
C      -3.12354389       0.76345238      -0.18004135        6 
H      -2.88684705       1.41604775      -1.02373765        1 
H      -3.17696738       1.39319458       0.71103240        1 
H      -4.11111901       0.33300898      -0.35589290        1 
