27
Lattice="0.0 0.0 0.0 0.0 0.0 0.0 0.0 0.0 0.0" Properties=species:S:1:pos:R:3:Z:I:1 pbc="F F F"
C       0.55884167      -0.83721580       0.21766391        6 
C      -0.68991803      -0.28291378      -0.08757280        6 
C       1.77026661       0.03886138       0.23982586        6 
C      -0.81098206       1.19422248      -0.34146741        6 
O       2.77099931      -0.49182991      -0.48733437        8 
O       1.86722015       1.06440050       0.87181131        8 
O      -1.30779736       1.83067082       0.72912068        8 
O      -0.54794833       1.72808678      -1.39171632        8 
C      -1.43785655       3.26126686       0.60757727        6 
C       4.00492750       0.25250796      -0.49876537        6 
C       0.68011918      -2.21246229       0.43083327        6 
C      -0.45070613      -3.01887023       0.38383777        6 
C      -1.69116462      -2.46202394       0.08222341        6 
C      -1.83469313      -1.09326955      -0.15941852        6 
H      -0.46551164       3.70600448       0.39390218        1 
H       3.83784180       1.25396299      -0.89685511        1 
H      -2.56709294      -3.09991207       0.02936196        1 
H      -2.13798524       3.51297955      -0.19071934        1 
H      -1.81264375       3.59855088       1.57091123        1 
H       4.67429211      -0.31159039      -1.14398560        1 
H       4.41213880       0.32820798       0.51075234        1 
H      -0.36543692      -4.08394657       0.56681438        1 
H       1.65438744      -2.63898437       0.63267816        1 
C      -3.18651567      -0.50931109      -0.49242943        6 
H      -3.15235044       0.06619196      -1.42174361        1 
H      -3.52910639       0.16383459       0.29853694        1 
H      -3.93161611      -1.29737731      -0.61244570        1 
