27
Lattice="0.0 0.0 0.0 0.0 0.0 0.0 0.0 0.0 0.0" Properties=species:S:1:pos:R:3:Z:I:1 pbc="F F F"
C      -0.19885661      -1.05234333      -0.17223153        6 
C      -0.81346182       0.19578089       0.06342796        6 
C       1.28096713      -1.27402376      -0.11105152        6 
C      -0.01419639       1.45843838       0.01360718        6 
O       1.84607860      -0.57936736       0.89837766        8 
O       1.88338831      -2.06346766      -0.79815596        8 
O       0.99029088       1.35984065      -0.88562392        8 
O      -0.27327307       2.48307299       0.59979768        8 
C       1.85132216       2.50331348      -1.00337168        6 
C       3.26666319      -0.73799968       1.04985482        6 
C      -0.97097423      -2.20101911      -0.33315856        6 
C      -2.35604813      -2.12438037      -0.23491946        6 
C      -2.96140305      -0.90307373       0.03108809        6 
C      -2.21768129       0.27554475       0.17594842        6 
H       1.27873906       3.38785892      -1.28535580        1 
H       3.51762192      -1.78409718       1.23067812        1 
H      -4.04144376      -0.84826226       0.11442715        1 
H       2.36183045       2.69314173      -0.05716068        1 
H       2.56752099       2.24589734      -1.78063343        1 
H       3.53624830      -0.12468654       1.90674153        1 
H       3.78403191      -0.39571900       0.15169449        1 
H      -2.96059086      -3.01617500      -0.35609667        1 
H      -0.47453438      -3.14602501      -0.51434327        1 
C      -2.95945234       1.56839588       0.41935286        6 
H      -2.69802311       2.33317853      -0.31512688        1 
H      -2.71539492       1.98429875       1.39806281        1 
H      -4.03589711       1.39510000       0.36847264        1 
