27
Lattice="0.0 0.0 0.0 0.0 0.0 0.0 0.0 0.0 0.0" Properties=species:S:1:pos:R:3:Z:I:1 pbc="F F F"
C       0.52561192      -0.69277921      -0.22832988        6 
C      -0.76240851      -0.23832305       0.14077348        6 
C       1.75329448       0.14678178       0.01143668        6 
C      -1.10937765       1.22155410       0.24635291        6 
O       2.79733579      -0.64932993       0.35311572        8 
O       1.86316493       1.34386990      -0.08351846        8 
O      -0.67036925       1.89100865      -0.82825476        8 
O      -1.85670445       1.69867741       1.07014464        8 
C      -0.92389137       3.30520234      -0.84689063        6 
C       4.04819025       0.02246350       0.58065484        6 
C       0.71359308      -2.03516832      -0.57111726        6 
C      -0.36044619      -2.91524018      -0.58703762        6 
C      -1.61507796      -2.47582124      -0.18729339        6 
C      -1.84416906      -1.14503671       0.18082285        6 
H      -1.99457901       3.50637268      -0.78587401        1 
H       4.36325344       0.55949278      -0.31544545        1 
H      -2.44739380      -3.17102310      -0.17127945        1 
H      -0.41394793       3.78662103      -0.01105913        1 
H      -0.51654374       3.65681407      -1.79182201        1 
H       4.75671588      -0.76570912       0.82618743        1 
H       3.95712491       0.72820566       1.40768608        1 
H      -0.21301032      -3.94820638      -0.88093935        1 
H       1.70803884      -2.38572072      -0.80808255        1 
C      -3.24867030      -0.73984247       0.56780558        6 
H      -3.62315193       0.07531195      -0.05637902        1 
H      -3.29113749      -0.38607976       1.59869033        1 
H      -3.92422597      -1.59014173       0.45950047        1 
