27
Lattice="0.0 0.0 0.0 0.0 0.0 0.0 0.0 0.0 0.0" Properties=species:S:1:pos:R:3:Z:I:1 pbc="F F F"
C      -0.06748934      -0.97024909      -0.16805852        6 
C      -0.88373119       0.15592410       0.02471419        6 
C       1.42284769      -0.87493783      -0.34761299        6 
C      -0.31452586       1.52672832      -0.16214618        6 
O       2.05692912      -1.02826498       0.82680834        8 
O       1.98233492      -0.79073567      -1.41362074        8 
O       0.88406189       1.65953975       0.44102098        8 
O      -0.82771317       2.40017314      -0.81959031        8 
C       1.59531309       2.88336629       0.17740675        6 
C       3.49507334      -1.00106279       0.77332887        6 
C      -0.62122025      -2.25034026      -0.16659350        6 
C      -1.98584534      -2.41193206       0.04017715        6 
C      -2.79345102      -1.29818639       0.24827080        6 
C      -2.27153205      -0.00268490       0.22320200        6 
H       1.81726211       2.96596194      -0.88762177        1 
H       3.87021721      -1.80301875       0.13563304        1 
H      -3.85551513      -1.43165257       0.42358867        1 
H       1.00507561       3.74416902       0.49336035        1 
H       2.51274786       2.81310796       0.75736664        1 
H       3.82442039      -1.13984038       1.80043487        1 
H       3.84082805      -0.04186980       0.38455694        1 
H      -2.41912447      -3.40580422       0.04671074        1 
H       0.01688847      -3.11257761      -0.31993759        1 
C      -3.20201901       1.17064115       0.41522496        6 
H      -3.36699300       1.69563991      -0.52826549        1 
H      -2.79743652       1.90333114       1.11692861        1 
H      -4.16592081       0.82872989       0.79635389        1 
