27
Lattice="0.0 0.0 0.0 0.0 0.0 0.0 0.0 0.0 0.0" Properties=species:S:1:pos:R:3:Z:I:1 pbc="F F F"
C       0.49316241      -0.79455989       0.12965413        6 
C      -0.78238434      -0.24352972      -0.11108241        6 
C       1.71721338       0.02451398      -0.13342202        6 
C      -1.00168156       1.24056794      -0.21207019        6 
O       2.84833673      -0.70532287      -0.01188703        8 
O       1.72853054       1.19874741      -0.42127982        8 
O      -0.59297065       1.85652563       0.91072979        8 
O      -1.61345559       1.78741067      -1.09793295        8 
C      -0.68207447       3.29154454       0.90607681        6 
C       4.07822001      -0.00373337      -0.26188014        6 
C       0.61758065      -2.16279635       0.39334377        6 
C      -0.51133609      -2.97098282       0.44025342        6 
C      -1.76344858      -2.42574980       0.18149755        6 
C      -1.92583714      -1.06366364      -0.09534980        6 
H      -0.01928645       3.69698691       0.13975191        1 
H       4.07787929       0.41969908      -1.26723504        1 
H      -2.64122350      -3.06274273       0.20304975        1 
H      -1.70612592       3.61460358       0.71361609        1 
H      -0.35815244       3.60489448       1.89600736        1 
H       4.86186328      -0.75116006      -0.15922781        1 
H       4.21425963       0.79822405       0.46541847        1 
H      -0.41359219      -4.02839238       0.65809881        1 
H       1.60098029      -2.58540044       0.54262979        1 
C      -3.31382740      -0.52087337      -0.34496483        6 
H      -3.41390012      -0.15020272      -1.36678191        1 
H      -3.54654780       0.31656436       0.31795273        1 
H      -4.06053648      -1.29980684      -0.18128241        1 
