27
Lattice="0.0 0.0 0.0 0.0 0.0 0.0 0.0 0.0 0.0" Properties=species:S:1:pos:R:3:Z:I:1 pbc="F F F"
C       0.48165882      -0.84384552      -0.23845625        6 
C      -0.73274821      -0.23328247       0.09851604        6 
C       1.75497223      -0.05651136      -0.21071017        6 
C      -0.80305477       1.24812067       0.35078060        6 
O       2.67623797      -0.66483054       0.56321463        8 
O       1.96843794       0.95554639      -0.83417118        8 
O      -0.95302111       1.92024497      -0.79862995        8 
O      -0.79779447       1.75837701       1.44527290        8 
C      -0.98225547       3.35696391      -0.69643083        6 
C       3.96778530      -0.02921726       0.62168926        6 
C       0.52575114      -2.21855592      -0.48682325        6 
C      -0.64615084      -2.96387196      -0.45434939        6 
C      -1.85179852      -2.35052922      -0.12294100        6 
C      -1.91813376      -0.98480289       0.16286114        6 
H      -1.80243728       3.67863397      -0.05279611        1 
H       4.41177795       0.02237762      -0.37377650        1 
H      -2.76149800      -2.94046900      -0.08463133        1 
H      -0.03594796       3.71924995      -0.29285453        1 
H      -1.12474749       3.71400409      -1.71351352        1 
H       4.56641773      -0.65491402       1.27959022        1 
H       3.87543668       0.97896007       1.02753150        1 
H      -0.62032481      -4.02572914      -0.67079039        1 
H       1.47417304      -2.69283784      -0.70496268        1 
C      -3.23191285      -0.33851579       0.53030308        6 
H      -3.47839344       0.47734882      -0.15592650        1 
H      -3.19408133       0.08328898       1.53820133        1 
H      -4.04529909      -1.06479890       0.49413664        1 
