27
Lattice="0.0 0.0 0.0 0.0 0.0 0.0 0.0 0.0 0.0" Properties=species:S:1:pos:R:3:Z:I:1 pbc="F F F"
C       0.42671494      -1.08430777      -0.10649774        6 
C      -0.66312364      -0.19098006      -0.01909903        6 
C       1.86010350      -0.64054914      -0.18501246        6 
C      -0.36692932       1.25405793      -0.27367122        6 
O       2.20310809       0.09355837       0.88927617        8 
O       2.63246001      -1.00036325      -1.03846657        8 
O      -1.32305629       2.08969277       0.17807314        8 
O       0.64233423       1.65237784      -0.80932444        8 
C      -1.08816396       3.49226254      -0.04458053        6 
C       3.53544357       0.63581966       0.87155113        6 
C       0.22747326      -2.46075190      -0.05478507        6 
C      -1.05662941      -2.96840272       0.10450149        6 
C      -2.13295959      -2.09674708       0.19934003        6 
C      -1.97337023      -0.70675141       0.12731519        6 
H      -0.17684542       3.80997279       0.46358821        1 
H       4.27489690      -0.16249003       0.79438346        1 
H      -3.13422713      -2.49790739       0.31097006        1 
H      -0.99476584       3.69922984      -1.11156536        1 
H      -1.95663624       3.99834314       0.37137510        1 
H       3.64288602       1.17049628       1.81271045        1 
H       3.64391111       1.31749179       0.02629964        1 
H      -1.21851309      -4.03942141       0.15084100        1 
H       1.08127311      -3.12209521      -0.13421795        1 
C      -3.22845698       0.13532187       0.18186245        6 
H      -3.31210448       0.79914950      -0.68032966        1 
H      -3.24787551       0.76925871       1.06966980        1 
H      -4.10583046      -0.51356412       0.20038177        1 
