27
Lattice="0.0 0.0 0.0 0.0 0.0 0.0 0.0 0.0 0.0" Properties=species:S:1:pos:R:3:Z:I:1 pbc="F F F"
C      -0.13314994      -0.98298782      -0.16432652        6 
C      -0.86590037       0.21301844      -0.00184570        6 
C       1.36576319      -1.06675110      -0.27077794        6 
C      -0.19024305       1.54517511      -0.03874905        6 
O       1.93968731      -0.97371274       0.94347618        8 
O       1.96538942      -1.30659138      -1.28837238        8 
O       1.12606503       1.44159004      -0.31457762        8 
O      -0.73331246       2.61672764       0.11037976        8 
C       1.86157263       2.67142996      -0.41071324        6 
C       3.37549644      -1.06194444       0.96332205        6 
C      -0.78477186      -2.21340981      -0.22082209        6 
C      -2.16678904      -2.27530195      -0.09373979        6 
C      -2.89345075      -1.10591016       0.08331433        6 
C      -2.27746487       0.14978858       0.12494789        6 
H       1.45716125       3.29408610      -1.20978764        1 
H       3.70605638      -2.02571675       0.57300241        1 
H      -3.97168824      -1.15875961       0.18413249        1 
H       1.81428843       3.21832711       0.53197458        1 
H       2.88390139       2.37679908      -0.63682881        1 
H       3.65791424      -0.95332357       2.00802919        1 
H       3.81096815      -0.26288195       0.36101568        1 
H      -2.67490609      -3.23236181      -0.13211011        1 
H      -0.20501090      -3.11797340      -0.36081441        1 
C      -3.16873266       1.35712222       0.29466316        6 
H      -3.07305440       2.04987542      -0.54300043        1 
H      -2.91169361       1.92678138       1.18913603        1 
H      -4.20964655       1.03668192       0.36844827        1 
