27
Lattice="0.0 0.0 0.0 0.0 0.0 0.0 0.0 0.0 0.0" Properties=species:S:1:pos:R:3:Z:I:1 pbc="F F F"
C       0.10061579      -0.92067788       0.06385071        6 
C      -0.91134702       0.05840016       0.03867618        6 
C       1.52944607      -0.57082870       0.35396806        6 
C      -0.55964855       1.51127864       0.05254617        6 
O       2.36226334      -1.12526451      -0.54778022        8 
O       1.89951726       0.05332488       1.31845950        8 
O       0.58133184       1.74309245      -0.62989812        8 
O      -1.22673943       2.38949973       0.54589351        8 
C       1.08798334       3.08782487      -0.57904012        6 
C       3.76821121      -0.93159097      -0.30548909        6 
C      -0.22202136      -2.27239750      -0.04685027        6 
C      -1.55361323      -2.65817843      -0.15795039        6 
C      -2.55449932      -1.69483739      -0.16700305        6 
C      -2.26341755      -0.32846693      -0.07446640        6 
H       0.34298819       3.79212399      -0.95108277        1 
H       4.01065603       0.13206198      -0.30395526        1 
H      -3.59075162      -2.00180340      -0.25791256        1 
H       1.35467599       3.34680694       0.44702409        1 
H       1.97032937       3.08812265      -1.21500970        1 
H       4.27468308      -1.43954415      -1.12304958        1 
H       4.05264782      -1.36514738       0.65465944        1 
H      -1.81029463      -3.70860633      -0.23704685        1 
H       0.56682786      -3.01386377      -0.03169513        1 
C      -3.40497987       0.65912977      -0.12255040        6 
H      -3.23673368       1.44049086      -0.86640266        1 
H      -3.52718897       1.16638243       0.83623789        1 
H      -4.33517463       0.14358113      -0.36827198        1 
