27
Lattice="0.0 0.0 0.0 0.0 0.0 0.0 0.0 0.0 0.0" Properties=species:S:1:pos:R:3:Z:I:1 pbc="F F F"
C       0.60938619      -0.81735886      -0.04515432        6 
C      -0.70256491      -0.31678850      -0.06580906        6 
C       1.75885562       0.13201548      -0.06284948        6 
C      -0.99126712       1.14023397      -0.31745235        6 
O       2.94284553      -0.49621708       0.10210942        8 
O       1.66588488       1.32788810      -0.21867345        8 
O      -1.17131671       1.81073658       0.83306620        8 
O      -1.10718876       1.62037989      -1.41594677        8 
C      -1.39567821       3.22767678       0.69919463        6 
C       4.10943552       0.34407303       0.07109568        6 
C       0.82374200      -2.19645964       0.07124386        6 
C      -0.25608956      -3.06486055       0.15364886        6 
C      -1.55387851      -2.56122102       0.13445373        6 
C      -1.79979869      -1.19070623       0.01954341        6 
H      -0.54011908       3.69172228       0.20686656        1 
H       4.18894849       0.84937220      -0.89259485        1 
H      -2.39569281      -3.24228278       0.20428664        1 
H      -2.29912357       3.41897329       0.11781743        1 
H      -1.50551495       3.60009214       1.71520459        1 
H       4.95178296      -0.32713370       0.22342942        1 
H       4.06361174       1.09063709       0.86533889        1 
H      -0.08985535      -4.13263486       0.23796374        1 
H       1.83683293      -2.57223346       0.09916652        1 
C      -3.21706315      -0.67085883      -0.03291292        6 
H      -3.43363532      -0.22191112      -1.00665948        1 
H      -3.38770981       0.09564601       0.72729481        1 
H      -3.93261965      -1.47780953       0.13295366        1 
