27
Lattice="0.0 0.0 0.0 0.0 0.0 0.0 0.0 0.0 0.0" Properties=species:S:1:pos:R:3:Z:I:1 pbc="F F F"
C       0.65904621      -0.89679380       0.26712472        6 
C      -0.59010251      -0.30827312      -0.03369462        6 
C       1.95767561      -0.13810177       0.31300397        6 
C      -0.68113201       1.17808438       0.14404660        6 
O       2.23897330       0.38728301      -0.89110245        8 
O       2.72719523      -0.16027997       1.24272571        8 
O      -1.95093200       1.62694407       0.22499927        8 
O       0.26840924       1.92091425       0.24571118        8 
C      -2.10465862       3.03951516       0.45367187        6 
C       3.43959645       1.17398888      -0.96706774        6 
C       0.78357611      -2.27719321       0.39513101        6 
C      -0.31839138      -3.09546610       0.17385747        6 
C      -1.53174190      -2.52941497      -0.19237488        6 
C      -1.70653227      -1.14278600      -0.28628652        6 
H      -1.62666440       3.32700218       1.39096907        1 
H       3.35202279       2.04295908      -0.31278108        1 
H      -2.38029700      -3.17310340      -0.39691722        1 
H      -1.66189855       3.60995522      -0.36399718        1 
H      -3.17857571       3.20625888       0.50224479        1 
H       3.51583512       1.48510249      -2.00655508        1 
H       4.30886657       0.58226943      -0.67626440        1 
H      -0.22572658      -4.17184518       0.26553433        1 
H       1.74850608      -2.70039778       0.64543533        1 
C      -3.08485003      -0.65174603      -0.67040000        6 
H      -3.04490456       0.12931102      -1.42958492        1 
H      -3.61295765      -0.23193513       0.18819159        1 
H      -3.67278898      -1.48484983      -1.06059789        1 
