27
Lattice="0.0 0.0 0.0 0.0 0.0 0.0 0.0 0.0 0.0" Properties=species:S:1:pos:R:3:Z:I:1 pbc="F F F"
C       0.52747623      -0.95315748       0.00315970        6 
C      -0.67587159      -0.22666327       0.09598383        6 
C       1.87667445      -0.34791389       0.29141110        6 
C      -0.56017536       1.26476727       0.15473668        6 
O       2.51151672      -0.00624754      -0.84514549        8 
O       2.33831337      -0.23111391       1.39571487        8 
O      -1.61762203       1.89032879      -0.40370062        8 
O       0.38325079       1.86603285       0.61260095        8 
C      -1.57189790       3.32873325      -0.39540946        6 
C       3.80222492       0.61321455      -0.67659779        6 
C       0.50834886      -2.33025900      -0.21000704        6 
C      -0.70507745      -3.00003761      -0.30742478        6 
C      -1.89407845      -2.29546273      -0.16503317        6 
C      -1.91293581      -0.91000905       0.02621143        6 
H      -1.51974916       3.70235990       0.62825389        1 
H       3.70176102       1.52862837      -0.09208295        1 
H      -2.83782138      -2.82842222      -0.20656540        1 
H      -0.70374323       3.68496781      -0.95165182        1 
H      -2.49388094       3.64828897      -0.87613736        1 
H       4.15100852       0.83222879      -1.68320863        1 
H       4.48870326      -0.06735626      -0.17049949        1 
H      -0.72464610      -4.07150256      -0.47213413        1 
H       1.44236998      -2.87497695      -0.28043667        1 
C      -3.26210475      -0.24375222       0.17852026        6 
H      -3.54491635       0.29587843      -0.72746822        1 
H      -3.27398288       0.47782867       0.99645837        1 
H      -4.02366246      -0.99971409       0.37923457        1 
