27
Lattice="0.0 0.0 0.0 0.0 0.0 0.0 0.0 0.0 0.0" Properties=species:S:1:pos:R:3:Z:I:1 pbc="F F F"
C      -0.06981398      -0.96626123       0.20360621        6 
C      -0.85646285       0.17737353      -0.04871863        6 
C       1.43263028      -0.97779529       0.28670677        6 
C      -0.27795988       1.55048736       0.08560447        6 
O       1.97578559      -0.89840892      -0.94132167        8 
O       2.06300487      -1.19629805       1.29201789        8 
O       1.06521702       1.56408279      -0.02728782        8 
O      -0.91607281       2.54793983       0.33502634        8 
C       1.71381947       2.81985408       0.23698258        6 
C       3.41139937      -0.95035165      -0.99615629        6 
C      -0.66258105      -2.22406665       0.30477588        6 
C      -2.03139433      -2.36570222       0.11284294        6 
C      -2.80370340      -1.25058556      -0.18593801        6 
C      -2.25057669       0.03216897      -0.25209883        6 
H       1.37989493       3.57815616      -0.47239469        1 
H       3.84129456      -0.11815254      -0.43594922        1 
H      -3.86802370      -1.36752446      -0.35836225        1 
H       1.49528253       3.15309018       1.25239114        1 
H       2.77717937       2.62463172       0.11809016        1 
H       3.66355336      -0.87277354      -2.05137579        1 
H       3.77843426      -1.88996111      -0.58013118        1 
H      -2.49170668      -3.34484069       0.18320695        1 
H      -0.04463425      -3.08821988       0.51717652        1 
C      -3.18012895       1.18591684      -0.54536435        6 
H      -2.76704208       1.86894298      -1.28837846        1 
H      -3.36489952       1.78162744       0.35112385        1 
H      -4.13467370       0.80424743      -0.91310800        1 
