27
Lattice="0.0 0.0 0.0 0.0 0.0 0.0 0.0 0.0 0.0" Properties=species:S:1:pos:R:3:Z:I:1 pbc="F F F"
C      -0.19520434      -1.04235834      -0.18112332        6 
C      -0.80831801       0.20646035       0.06102709        6 
C       1.28335727      -1.27218197      -0.10659063        6 
C      -0.01336549       1.47079482      -0.01279786        6 
O       1.83784419      -0.60050034       0.92382478        8 
O       1.88921308      -2.05739744      -0.79558315        8 
O       1.03147174       1.33993437      -0.86060858        8 
O      -0.30724449       2.52316340       0.50489506        8 
C       1.87875369       2.49018574      -1.00701290        6 
C       3.25522546      -0.77025631       1.09152847        6 
C      -0.96751633      -2.18982887      -0.34565464        6 
C      -2.35250898      -2.11405929      -0.24300152        6 
C      -2.95647544      -0.89493052       0.03349479        6 
C      -2.21304955       0.28417226       0.17955465        6 
H       1.30436535       3.34662845      -1.36247433        1 
H       3.49876082      -1.82133569       1.25250762        1 
H      -4.03602732      -0.84111705       0.12299342        1 
H       2.34548576       2.74267960      -0.05294465        1 
H       2.63100376       2.20231375      -1.73817838        1 
H       3.51589354      -0.17728236       1.96534637        1 
H       3.78669942      -0.41044113       0.20852997        1 
H      -2.95728253      -3.00538066      -0.36662845        1 
H      -0.47138582      -3.13412967      -0.53129177        1 
C      -2.95969980       1.57273204       0.43026820        6 
H      -2.72253579       2.33295912      -0.31694616        1 
H      -2.69523751       2.00072064       1.39826265        1 
H      -4.03536003       1.38880925       0.40745342        1 
