27
Lattice="0.0 0.0 0.0 0.0 0.0 0.0 0.0 0.0 0.0" Properties=species:S:1:pos:R:3:Z:I:1 pbc="F F F"
C       0.65652460      -0.81347841       0.11463765        6 
C      -0.65159354      -0.30863493      -0.00928474        6 
C       1.82666550       0.09855785       0.34374163        6 
C      -0.79602910       1.16892286      -0.20445644        6 
O       2.79224586      -0.10567950      -0.56935110        8 
O       1.92171162       0.85779796       1.27615875        8 
O      -1.91984023       1.66557116       0.34607686        8 
O       0.01745268       1.85346691      -0.77944801        8 
C      -2.11542623       3.08547139       0.20487739        6 
C       3.97491626       0.70254983      -0.41789418        6 
C       0.88592417      -2.18628035       0.16047474        6 
C      -0.18802487      -3.06784716       0.09447833        6 
C      -1.48027062      -2.57383545      -0.02884340        6 
C      -1.74340835      -1.19964869      -0.09023882        6 
H      -1.30714735       3.62813128       0.69662460        1 
H       3.71771802       1.75960704      -0.49628478        1 
H      -2.31226065      -3.26646650      -0.09468571        1 
H      -2.14642642       3.36381187      -0.84957333        1 
H      -3.06786713       3.29374932       0.68717396        1 
H       4.63338199       0.40511365      -1.23080494        1 
H       4.44436955       0.51521309       0.54915195        1 
H      -0.01756794      -4.13778140       0.13381509        1 
H       1.89888318      -2.55683791       0.25525575        1 
C      -3.17780055      -0.75723531      -0.27286715        6 
H      -3.28562487      -0.05403377      -1.10131631        1 
H      -3.55312074      -0.25389463       0.62005736        1 
H      -3.81230312      -1.62166061      -0.47619013        1 
