27
Lattice="0.0 0.0 0.0 0.0 0.0 0.0 0.0 0.0 0.0" Properties=species:S:1:pos:R:3:Z:I:1 pbc="F F F"
C       0.58388316      -0.78934650       0.14720595        6 
C      -0.71068719      -0.30712615      -0.10109074        6 
C       1.74807007       0.13858423       0.04145203        6 
C      -0.97890788       1.15593566      -0.33331614        6 
O       2.88716045      -0.51984334      -0.25945462        8 
O       1.70500556       1.33326449       0.22522166        8 
O      -1.12450591       1.80526478       0.83058161        8 
O      -1.15116981       1.65079222      -1.42033457        8 
C      -1.32502336       3.22807290       0.73581660        6 
C       4.07336937       0.28937423      -0.35501407        6 
C       0.78253386      -2.15493821       0.38197064        6 
C      -0.30305749      -3.02026212       0.40674464        6 
C      -1.58390068      -2.53529003       0.15474849        6 
C      -1.81027229      -1.18172093      -0.10649838        6 
H      -0.45660908       3.69070269       0.26489026        1 
H       3.95227454       1.05003823      -1.12735302        1 
H      -2.42764609      -3.21727322       0.16135866        1 
H      -2.22087862       3.45243153       0.15465427        1 
H      -1.43349885       3.57264446       1.76159584        1 
H       4.87208064      -0.40086637      -0.61688853        1 
H       4.28091414       0.77595559       0.59936780        1 
H      -0.15262907      -4.07474319       0.60790998        1 
H       1.78589202      -2.52445841       0.54316940        1 
C      -3.20659724      -0.68068684      -0.38926544        6 
H      -3.28859455      -0.30351638      -1.41211256        1 
H      -3.47879776       0.13840760       0.28238919        1 
H      -3.93858636      -1.47962052      -0.26040744        1 
