27
Lattice="0.0 0.0 0.0 0.0 0.0 0.0 0.0 0.0 0.0" Properties=species:S:1:pos:R:3:Z:I:1 pbc="F F F"
C       0.48414518      -1.04322149       0.17323606        6 
C      -0.64211507      -0.20369293       0.00944607        6 
C       1.90345495      -0.54993418       0.18435512        6 
C      -0.43143184       1.25248302       0.29276039        6 
O       2.15684448       0.22614309      -0.88549943        8 
O       2.74867741      -0.93706923       0.95413252        8 
O      -1.46725227       2.03340400      -0.07471950        8 
O       0.57423867       1.70699746       0.78878112        8 
C      -1.31723773       3.43992577       0.19095337        6 
C       3.48090876       0.78165759      -0.95264920        6 
C       0.34849467      -2.42792850       0.17808808        6 
C      -0.90403105      -3.00231342      -0.00751175        6 
C      -2.00992791      -2.18721540      -0.19992588        6 
C      -1.91862177      -0.78819837      -0.17798729        6 
H      -1.16366950       3.61266540       1.25700908        1 
H       3.65501682       1.42924929      -0.09176379        1 
H      -2.98419503      -2.63944028      -0.34895587        1 
H      -0.46837909       3.84307021      -0.36298881        1 
H      -2.24634307       3.89587057      -0.14414702        1 
H       3.50670083       1.35645948      -1.87582731        1 
H       4.23072741      -0.01080138      -0.97087206        1 
H      -1.01608115      -4.08067214      -0.00961755        1 
H       1.23035978      -3.04206211       0.31031168        1 
C      -3.21113379      -0.01791803      -0.33562784        6 
H      -3.18330093       0.64317144      -1.20266730        1 
H      -3.41761365       0.61115436       0.53219638        1 
H      -4.04095470      -0.71616358      -0.45765044        1 
