27
Lattice="0.0 0.0 0.0 0.0 0.0 0.0 0.0 0.0 0.0" Properties=species:S:1:pos:R:3:Z:I:1 pbc="F F F"
C      -0.05272086      -0.95244127      -0.15044599        6 
C      -0.88830682       0.17158243       0.01052468        6 
C       1.44008499      -0.88377895      -0.33460260        6 
C      -0.32880538       1.55566100      -0.04065385        6 
O       2.07446683      -1.03273352       0.84169993        8 
O       1.99549904      -0.84169748      -1.40412102        8 
O       1.00585420       1.57096415       0.15391733        8 
O      -0.96716607       2.56472905      -0.23579890        8 
C       1.65860147       2.84374076       0.01391987        6 
C       3.51222380      -1.04541744       0.78071237        6 
C      -0.58968523      -2.23835558      -0.16575997        6 
C      -1.95749435      -2.42211384      -0.00650377        6 
C      -2.78469141      -1.32027285       0.17002007        6 
C      -2.28363787      -0.01482542       0.17356234        6 
H       1.48077877       3.25410561      -0.98081630        1 
H       3.86275895      -1.89861780       0.19751716        1 
H      -3.85017102      -1.46790049       0.30702828        1 
H       1.29202255       3.54384669       0.76590984        1 
H       2.71718611       2.64199499       0.16133735        1 
H       3.84426457      -1.12387010       1.81337315        1 
H       3.88062873      -0.12495868       0.32542119        1 
H      -2.37643348      -3.42214821      -0.01534044        1 
H       0.06546231      -3.09081394      -0.30043867        1 
C      -3.26704863       1.11556869       0.35994217        6 
H      -3.36494025       1.70938374      -0.55094627        1 
H      -2.95457118       1.80823111       1.14298740        1 
H      -4.24689992       0.71098081       0.62100209        1 
