27
Lattice="0.0 0.0 0.0 0.0 0.0 0.0 0.0 0.0 0.0" Properties=species:S:1:pos:R:3:Z:I:1 pbc="F F F"
C      -0.22375292      -1.04152221      -0.10262019        6 
C      -0.86260565       0.20678760       0.00379641        6 
C       1.26531357      -1.18705712      -0.22671678        6 
C      -0.05346629       1.46108444       0.08334062        6 
O       1.88719666      -0.83806316       0.91759725        8 
O       1.83319949      -1.58507122      -1.21189291        8 
O       0.99152632       1.42344867      -0.76859097        8 
O      -0.28617553       2.39854619       0.80890468        8 
C       1.91375969       2.52446749      -0.69954369        6 
C       3.32514257      -0.90372464       0.89389954        6 
C      -0.97450432      -2.21544881      -0.15441453        6 
C      -2.36075088      -2.15354939      -0.07877256        6 
C      -2.99400967      -0.92020057       0.03135389        6 
C      -2.26983158       0.27467259       0.08062075        6 
H       1.41334004       3.45855100      -0.95827058        1 
H       3.65749067      -1.92219279       0.68816472        1 
H      -4.07676744      -0.87627263       0.07641839        1 
H       2.33036406       2.60561124       0.30586629        1 
H       2.69133127       2.29276305      -1.42392429        1 
H       3.64571276      -0.58803002       1.88408276        1 
H       3.72073292      -0.23554832       0.12702567        1 
H      -2.94789970      -3.06427071      -0.11383623        1 
H      -0.46973114      -3.16862558      -0.25565136        1 
C      -3.01937789       1.58010212       0.19691309        6 
H      -2.68037061       2.31272853      -0.53888620        1 
H      -2.86980658       2.03125466       1.17981989        1 
H      -4.08764746       1.41366122       0.04700399        1 
