27
Lattice="0.0 0.0 0.0 0.0 0.0 0.0 0.0 0.0 0.0" Properties=species:S:1:pos:R:3:Z:I:1 pbc="F F F"
C       0.42793287      -1.06653548       0.25686693        6 
C      -0.61566384      -0.13704322      -0.00492101        6 
C       1.89690776      -0.76458555       0.10529618        6 
C      -0.35860041       1.29367285       0.37963291        6 
O       2.12486011       0.30473738      -0.67396272        8 
O       2.77455344      -1.52323092       0.45103232        8 
O      -1.28920456       2.15486965      -0.08690070        8 
O       0.59397206       1.66410400       1.02277967        8 
C      -1.09686054       3.53495272       0.27025723        6 
C       3.50338103       0.61677806      -0.92895659        6 
C       0.15242404      -2.42855319       0.33908289        6 
C      -1.14328295      -2.89835840       0.15160691        6 
C      -2.14993087      -2.00501733      -0.17506149        6 
C      -1.92441470      -0.62054792      -0.24169298        6 
H      -1.10130382       3.65379336       1.35477363        1 
H       4.02305382       0.82591054       0.00730161        1 
H      -3.15317547      -2.37461901      -0.35659948        1 
H      -0.14847504       3.90187630      -0.12471352        1 
H      -1.93256931       4.06763130      -0.17873722        1 
H       3.48516069       1.50194653      -1.56086155        1 
H       3.99732749      -0.21214287      -1.43886752        1 
H      -1.35646282      -3.95874235       0.22567985        1 
H       0.97593795      -3.10976887       0.50940155        1 
C      -3.13031236       0.24614804      -0.53504521        6 
H      -2.95222080       0.91392821      -1.37757495        1 
H      -3.39224639       0.87767629       0.31651226        1 
H      -3.98820485      -0.38772740      -0.76619138        1 
