27
Lattice="0.0 0.0 0.0 0.0 0.0 0.0 0.0 0.0 0.0" Properties=species:S:1:pos:R:3:Z:I:1 pbc="F F F"
C       0.35108672      -0.76954059       0.17762884        6 
C      -0.84692038      -0.05746399      -0.11450686        6 
C       1.68975564      -0.23730352      -0.25949938        6 
C      -0.90643570       1.44220352      -0.00757450        6 
O       2.70129628      -1.04276598       0.14792583        8 
O       1.88213840       0.76673387      -0.89895401        8 
O       0.12771632       1.92851393       0.70189856        8 
O      -1.86238785       2.12650758      -0.30034944        8 
C       0.14812839       3.34904414       0.90025474        6 
C       4.01882297      -0.64776772      -0.26751191        6 
C       0.28927710      -2.12355476       0.50840860        6 
C      -0.93190610      -2.79022403       0.54114256        6 
C      -2.08490615      -2.11947349       0.17139083        6 
C      -2.07746315      -0.75147524      -0.14617223        6 
H       0.20169226       3.86452478      -0.06015016        1 
H       4.08824450      -0.63272369      -1.35653956        1 
H      -3.02990321      -2.65122660       0.14854858        1 
H      -0.74399930       3.67637344       1.43670338        1 
H       1.04379943       3.54410164       1.48590804        1 
H       4.68952195      -1.39651168       0.14866801        1 
H       4.26058396       0.34328509       0.11938682        1 
H      -0.97264185      -3.83979446       0.80968563        1 
H       1.20813882      -2.66100407       0.69349098        1 
C      -3.40728226      -0.11287762      -0.47397274        6 
H      -3.37511782       0.42271546      -1.42265698        1 
H      -3.70060905       0.62134497       0.27967316        1 
H      -4.17875690      -0.88361887      -0.52739574        1 
