27
Lattice="0.0 0.0 0.0 0.0 0.0 0.0 0.0 0.0 0.0" Properties=species:S:1:pos:R:3:Z:I:1 pbc="F F F"
C       0.54305080      -0.81089746      -0.08334716        6 
C      -0.74802366      -0.28726660       0.10574579        6 
C       1.73070856       0.07560026       0.09238778        6 
C      -0.99638405       1.18707326       0.27787509        6 
O       2.89199913      -0.61020441       0.02595004        8 
O       1.68578064       1.27115658       0.27168896        8 
O      -0.84315442       1.83373188      -0.88951983        8 
O      -1.40751796       1.69523668       1.29167121        8 
C      -0.98297437       3.26511155      -0.83718001        6 
C       4.09117108       0.16513513       0.19682959        6 
C       0.70828741      -2.18293388      -0.30852929        6 
C      -0.39969524      -3.01769104      -0.36566704        6 
C      -1.67407775      -2.49304983      -0.17133963        6 
C      -1.87222485      -1.13022402       0.06707055        6 
H      -1.96913769       3.54280616      -0.46219149        1 
H       4.17620854       0.91475519      -0.59137893        1 
H      -2.53694685      -3.14953550      -0.20969093        1 
H      -0.21233098       3.68483128      -0.18896724        1 
H      -0.84995092       3.60592396      -1.86149048        1 
H       4.90771161      -0.55084983       0.13523750        1 
H       4.08720044       0.66297739       1.16748122        1 
H      -0.27190514      -4.07818253      -0.55026773        1 
H       1.70523719      -2.58259360      -0.42949148        1 
C      -3.26994734      -0.59288162       0.26521801        6 
H      -3.48462031       0.22782248      -0.42512844        1 
H      -3.40204984      -0.20444939       1.27760116        1 
H      -4.01054947      -1.37641891       0.09655222        1 
