27
Lattice="0.0 0.0 0.0 0.0 0.0 0.0 0.0 0.0 0.0" Properties=species:S:1:pos:R:3:Z:I:1 pbc="F F F"
C       0.67387235      -0.88133219       0.27955196        6 
C      -0.57381019      -0.28841516      -0.03921049        6 
C       1.99603269      -0.16638622       0.21669636        6 
C      -0.68812689       1.18756728       0.21991776        6 
O       2.09641921       0.56542287      -0.90622593        8 
O       2.92714056      -0.39810047       0.95158849        8 
O      -1.95813364       1.64311524       0.16141506        8 
O       0.23819748       1.91726753       0.48678761        8 
C      -2.13662203       3.03885911       0.46113038        6 
C       3.32480669       1.28997468      -1.07606758        6 
C       0.78586206      -2.25999594       0.43216882        6 
C      -0.32003895      -3.07681710       0.22010816        6 
C      -1.52097386      -2.51109068      -0.17979080        6 
C      -1.68773606      -1.12329747      -0.29770696        6 
H      -1.78516517       3.25951281       1.46995944        1 
H       3.43553485       2.02467278      -0.27673423        1 
H      -2.37034775      -3.15282219      -0.38728873        1 
H      -1.58799172       3.65621844      -0.25150877        1 
H      -3.20713883       3.21497183       0.37926094        1 
H       3.23598333       1.78664865      -2.03972025        1 
H       4.17851018       0.61062900      -1.06830454        1 
H      -0.23528309      -4.15150225       0.33576798        1 
H       1.75099146      -2.68079004       0.68410407        1 
C      -3.06338560      -0.63982539      -0.70203619        6 
H      -3.01697119       0.13968204      -1.46158655        1 
H      -3.60649592      -0.22151037       0.14807361        1 
H      -3.64071012      -1.47806589      -1.09725362        1 
