27
Lattice="0.0 0.0 0.0 0.0 0.0 0.0 0.0 0.0 0.0" Properties=species:S:1:pos:R:3:Z:I:1 pbc="F F F"
C      -0.07541724      -0.95277786      -0.09858659        6 
C      -0.90028963       0.19250198      -0.06423143        6 
C       1.41168214      -0.93409515      -0.33737184        6 
C      -0.31367260       1.56542461       0.02064316        6 
O       2.08899272      -1.09097186       0.81615196        8 
O       1.92672038      -0.87358884      -1.42391407        8 
O       1.00689319       1.57570832      -0.24482532        8 
O      -0.91825693       2.56779675       0.32916208        8 
C       1.67569747       2.84184774      -0.13520776        6 
C       3.52337312      -1.13718466       0.69779874        6 
C      -0.63346688      -2.22857589      -0.02909459        6 
C      -2.01125211      -2.38492974       0.05271089        6 
C      -2.83044765      -1.26390451       0.05456376        6 
C      -2.30747182       0.03230826       0.00822679        6 
H       1.24292246       3.56233700      -0.83039410        1 
H       3.82863166      -1.98021068       0.07595143        1 
H      -3.90650486      -1.38791577       0.10232067        1 
H       1.59585356       3.22890192       0.88186341        1 
H       2.71332181       2.64024494      -0.39188222        1 
H       3.89386506      -1.25487747       1.71355345        1 
H       3.89596413      -0.21190288       0.25572105        1 
H      -2.44452375      -3.37756187       0.10383622        1 
H       0.01458905      -3.09671590      -0.05199133        1 
C      -3.28712733       1.18186233       0.03593286        6 
H      -3.10835266       1.88948430      -0.77472687        1 
H      -3.20456091       1.75190373       0.96289866        1 
H      -4.30528290       0.79730785      -0.05189063        1 
