27
Lattice="0.0 0.0 0.0 0.0 0.0 0.0 0.0 0.0 0.0" Properties=species:S:1:pos:R:3:Z:I:1 pbc="F F F"
C       0.56885146      -0.97288914       0.25208593        6 
C      -0.60358516      -0.22116831      -0.01685735        6 
C       1.96631611      -0.42236052       0.17172311        6 
C      -0.53044242       1.24665734       0.29432248        6 
O       2.10313916       0.41739043      -0.86962757        8 
O       2.89802081      -0.84758455       0.81374998        8 
O      -1.67853163       1.91180408       0.04613525        8 
O       0.45016941       1.80535559       0.72829322        8 
C      -1.67178314       3.31418116       0.36730875        6 
C       3.40917526       0.98818080      -1.04679869        6 
C       0.51680937      -2.35954441       0.35225538        6 
C      -0.68566335      -3.02859411       0.14872581        6 
C      -1.82006391      -2.30682238      -0.18722996        6 
C      -1.82034768      -0.90483465      -0.25554929        6 
H      -1.45633326       3.46197789       1.42640695        1 
H       3.66716379       1.60325103      -0.18300221        1 
H      -2.74831205      -2.83380464      -0.37936304        1 
H      -0.92183367       3.83827599      -0.22664866        1 
H      -2.67143516       3.66826139       0.12431792        1 
H       3.33743886       1.60056202      -1.94294007        1 
H       4.15818727       0.20491265      -1.17275170        1 
H      -0.72995094      -4.10918408       0.22498539        1 
H       1.43131114      -2.90142601       0.55701186        1 
C      -3.14491165      -0.24551324      -0.57314386        6 
H      -3.05607602       0.47325207      -1.38750847        1 
H      -3.53996269       0.29980752       0.28631900        1 
H      -3.87194950      -1.00832330      -0.85746058        1 
