27
Lattice="0.0 0.0 0.0 0.0 0.0 0.0 0.0 0.0 0.0" Properties=species:S:1:pos:R:3:Z:I:1 pbc="F F F"
C       0.55401982      -0.93819761      -0.23566803        6 
C      -0.63437764      -0.24939446       0.06493771        6 
C       1.88281263      -0.24543051      -0.37533749        6 
C      -0.57755453       1.24737944       0.06637954        6 
O       2.46051670      -0.07467912       0.82115031        8 
O       2.40713872       0.00950306      -1.43242398        8 
O      -1.67346869       1.79545391      -0.49592027        8 
O       0.34519997       1.90691921       0.48454379        8 
C      -1.69849553       3.23371121      -0.55904088        6 
C       3.71950235       0.62412929       0.81750272        6 
C       0.55049766      -2.32346066      -0.38512344        6 
C      -0.62997125      -3.03382202      -0.20120408        6 
C      -1.79780488      -2.36028078       0.13871481        6 
C      -1.83425501      -0.96778820       0.26068301        6 
H      -1.67022011       3.65990087       0.44502616        1 
H       4.44774271       0.10140629       0.19574468        1 
H      -2.70939321      -2.92330245       0.30878635        1 
H      -0.84653893       3.60277943      -1.13121465        1 
H      -2.63315611       3.48286295      -1.05645997        1 
H       4.04080019       0.64337390       1.85623683        1 
H       3.57572485       1.63782304       0.44131632        1 
H      -0.63766279      -4.11262879      -0.30888905        1 
H       1.47072364      -2.83835095      -0.63357592        1 
C      -3.14926477      -0.31564500       0.62393453        6 
H      -3.62485146       0.12841332      -0.25343034        1 
H      -3.02287980       0.48160561       1.35809981        1 
H      -3.82937313      -1.05979742       1.04291830        1 
