27
Lattice="0.0 0.0 0.0 0.0 0.0 0.0 0.0 0.0 0.0" Properties=species:S:1:pos:R:3:Z:I:1 pbc="F F F"
C      -0.06041590      -1.22541745      -0.08602626        6 
C      -0.72986030      -0.00400675       0.07190547        6 
C       1.42110767      -1.34050693       0.08449863        6 
C       0.05707781       1.24211753       0.35622921        6 
O       2.07851753      -0.41406702      -0.64196118        8 
O       1.96319376      -2.14333299       0.80317160        8 
O      -0.00293235       2.10783005      -0.67107321        8 
O       0.64338735       1.45946590       1.38855589        8 
C       0.72431081       3.33888494      -0.49739415        6 
C       3.50353545      -0.35407429      -0.44290425        6 
C      -0.78653684      -2.40005587      -0.29189883        6 
C      -2.17201495      -2.35028791      -0.37826004        6 
C      -2.83328342      -1.13456508      -0.22306132        6 
C      -2.13243575       0.05268857       0.00460875        6 
H       0.33412378       3.89726176       0.35489526        1 
H       3.72490047      -0.09409376       0.59331464        1 
H      -3.91667260      -1.10342081      -0.27104543        1 
H       1.78298536       3.13094547      -0.33627969        1 
H       0.57796316       3.89385278      -1.42117445        1 
H       3.85707906       0.42068026      -1.11943819        1 
H       3.96258351      -1.31390449      -0.68277010        1 
H      -2.73916781      -3.25809779      -0.54982377        1 
H      -0.25737303      -3.34109175      -0.37767415        1 
C      -2.87694569       1.35426207       0.18431379        6 
H      -2.75234258       1.99865833      -0.69005422        1 
H      -2.51086432       1.90709545       1.05347822        1 
H      -3.94346657       1.17297001       0.32694983        1 
