27
Lattice="0.0 0.0 0.0 0.0 0.0 0.0 0.0 0.0 0.0" Properties=species:S:1:pos:R:3:Z:I:1 pbc="F F F"
C       0.12320999      -1.17980900      -0.03458003        6 
C      -0.72102029      -0.07111288       0.11771406        6 
C       1.60108714      -1.06915082       0.20882311        6 
C      -0.09594547       1.27299259       0.33905224        6 
O       2.21828922      -0.43459845      -0.80760428        8 
O       2.15719492      -1.46376347       1.20050982        8 
O      -0.46386793       2.15003871      -0.61525877        8 
O       0.63898257       1.55080692       1.25560014        8 
C       0.06558986       3.48300205      -0.48348166        6 
C       3.62578610      -0.18126689      -0.62490333        6 
C      -0.41403885      -2.44376088      -0.27831158        6 
C      -1.79063409      -2.59756780      -0.39237478        6 
C      -2.62788168      -1.49739934      -0.23199554        6 
C      -2.11654250      -0.22096406       0.01707122        6 
H      -0.22494440       3.91555388       0.47498466        1 
H       3.78263251       0.42700057       0.26690566        1 
H      -3.70277625      -1.62764831      -0.29887084        1 
H       1.15406336       3.46653297      -0.55519717        1 
H      -0.36410576       4.04673646      -1.30829476        1 
H       3.94107464       0.35143410      -1.51915420        1 
H       4.17189175      -1.12039336      -0.52420681        1 
H      -2.21340733      -3.57635262      -0.58858496        1 
H       0.24534499      -3.29871288      -0.36815558        1 
C      -3.06446405       0.94272849       0.18626078        6 
H      -3.04512977       1.59429986      -0.69050919        1 
H      -2.80368120       1.55548906       1.05312486        1 
H      -4.08584547       0.58424667       0.32550947        1 
