27
Lattice="0.0 0.0 0.0 0.0 0.0 0.0 0.0 0.0 0.0" Properties=species:S:1:pos:R:3:Z:I:1 pbc="F F F"
C      -0.15196017      -1.19542738      -0.14839745        6 
C      -0.73501648       0.06300165       0.06354864        6 
C       1.30871654      -1.45977619       0.02703013        6 
C       0.09608439       1.29268110       0.30857093        6 
O       2.07407996      -0.41188873      -0.33439486        8 
O       1.75700496      -2.48539681       0.48257183        8 
O       0.37300922       1.92174484      -0.84602127        8 
O       0.39397844       1.71455858       1.39893425        8 
C       1.16216127       3.12012530      -0.73550561        6 
C       3.48458573      -0.54380906      -0.07827980        6 
C      -0.96790574      -2.31014813      -0.37197714        6 
C      -2.34641976      -2.16573758      -0.42570366        6 
C      -2.91927165      -0.91400387      -0.21218773        6 
C      -2.13280932       0.21260279       0.03782682        6 
H       0.64435577       3.86687197      -0.13148533        1 
H       3.66318177      -0.68023818       0.98916239        1 
H      -3.99845377      -0.80522095      -0.23720996        1 
H       2.12689933       2.89486814      -0.27795310        1 
H       1.29469798       3.47407921      -1.75524609        1 
H       3.92959891       0.38496796      -0.42766214        1 
H       3.89180020      -1.39517553      -0.62505418        1 
H      -2.97704649      -3.02676792      -0.61530201        1 
H      -0.50393225      -3.28106593      -0.49065196        1 
C      -2.77687122       1.55712273       0.27728656        6 
H      -2.46153000       2.28568789      -0.47554763        1 
H      -2.50234517       1.95658920       1.25708032        1 
H      -3.86411213       1.47889016       0.23453811        1 
