27
Lattice="0.0 0.0 0.0 0.0 0.0 0.0 0.0 0.0 0.0" Properties=species:S:1:pos:R:3:Z:I:1 pbc="F F F"
C       0.76137904       0.58063658      -0.15575637        6 
C      -0.60832312       0.25816845       0.08765858        6 
C       1.88010072      -0.33732665       0.27099930        6 
C      -1.02340116      -1.17214494      -0.16567472        6 
O       3.06030107       0.02985310      -0.29034260        8 
O       1.77913171      -1.28149152       1.00901375        8 
O      -2.35810344      -1.36777230      -0.04023789        8 
O      -0.27877393      -2.07510688      -0.45141384        8 
C      -2.81729616      -2.70763481      -0.28710554        6 
C       4.18998768      -0.78467020       0.06622812        6 
C       1.12967026       1.90120486      -0.40702303        6 
C       0.18004698       2.91872466      -0.39573740        6 
C      -1.12755897       2.62216049      -0.05674324        6 
C      -1.55767418       1.30328327       0.16800681        6 
H      -2.57879087      -3.01411743      -1.30686254        1 
H       4.36742666      -0.74643503       1.14238374        1 
H      -1.85742306       3.42148112       0.01181167        1 
H      -2.35366838      -3.40553056       0.41151753        1 
H      -3.89493763      -2.67308219      -0.13927697        1 
H       5.03359820      -0.36430706      -0.47711154        1 
H       4.01829759      -1.82090689      -0.22935719        1 
H       0.47326411       3.94107733      -0.60488015        1 
H       2.17395121       2.12863939      -0.56682609        1 
C      -3.03048272       1.12905331       0.47599860        6 
H      -3.19546195       0.45096344       1.31188962        1 
H      -3.57455547       0.71743893      -0.37643330        1 
H      -3.46398626       2.10047361       0.72190260        1 
