27
Lattice="0.0 0.0 0.0 0.0 0.0 0.0 0.0 0.0 0.0" Properties=species:S:1:pos:R:3:Z:I:1 pbc="F F F"
C      -0.21388429      -1.03264088      -0.10278804        6 
C      -0.86915919       0.20797924      -0.00671438        6 
C       1.27573610      -1.16095264      -0.24834999        6 
C      -0.07712228       1.47207509       0.08851945        6 
O       1.90466898      -0.88508546       0.91175696        8 
O       1.83733706      -1.48596468      -1.26300122        8 
O       0.99100651       1.44621758      -0.73400198        8 
O      -0.33621522       2.40481450       0.81150566        8 
C       1.89852437       2.55738764      -0.64048277        6 
C       3.34267470      -0.94589282       0.87459903        6 
C      -0.94936433      -2.21693027      -0.13960470        6 
C      -2.33617291      -2.17301367      -0.06416654        6 
C      -2.98600911      -0.94701945       0.03057259        6 
C      -2.27768739       0.25731964       0.06920776        6 
H       1.39555679       3.48519492      -0.91627473        1 
H       3.67580426      -1.94827314       0.60183993        1 
H      -4.06929986      -0.91709797       0.07383077        1 
H       2.28445435       2.64543062       0.37648812        1 
H       2.69942484       2.33280015      -1.34132671        1 
H       3.66934967      -0.69397300       1.88098235        1 
H       3.73219153      -0.22864183       0.15014524        1 
H      -2.91096479      -3.09192916      -0.08865819        1 
H      -0.43284416      -3.16481535      -0.23197343        1 
C      -3.04487146       1.55348200       0.17382823        6 
H      -2.71129064       2.28623440      -0.56422070        1 
H      -2.90806895       2.01194875       1.15516969        1 
H      -4.10992541       1.37190957       0.01795034        1 
