27
Lattice="0.0 0.0 0.0 0.0 0.0 0.0 0.0 0.0 0.0" Properties=species:S:1:pos:R:3:Z:I:1 pbc="F F F"
C      -0.09337493      -1.08959436       0.08960241        6 
C      -0.81179566       0.11062235       0.07182615        6 
C       1.38631486      -1.12860390       0.34638564        6 
C      -0.12616460       1.41283668       0.37428865        6 
O       2.08477221      -0.90130123      -0.78051876        8 
O       1.88877359      -1.36791071       1.41622608        8 
O       0.53669265       1.88619807      -0.69666430        8 
O      -0.15752491       1.96564447       1.44582005        8 
C       1.26858215       3.11164596      -0.49385850        6 
C       3.51964654      -0.93817455      -0.65301235        6 
C      -0.75619495      -2.30439608      -0.09439949        6 
C      -2.12842413      -2.31680155      -0.31385248        6 
C      -2.84014041      -1.12019891      -0.33440867        6 
C      -2.20302630       0.10527506      -0.13043723        6 
H       0.58938141       3.92138115      -0.22331158        1 
H       3.85643032      -0.19804011       0.07433197        1 
H      -3.91153614      -1.13517883      -0.50324622        1 
H       2.00740698       2.98376081       0.29861353        1 
H       1.75396868       3.31748863      -1.44493970        1 
H       3.90222390      -0.70719456      -1.64448242        1 
H       3.84786454      -1.92906610      -0.33502808        1 
H      -2.64489735      -3.25792067      -0.46483089        1 
H      -0.19588420      -3.23138657      -0.06399193        1 
C      -2.99366232       1.39076994      -0.11917595        6 
H      -2.58653660       2.11563766      -0.83038395        1 
H      -2.97016087       1.85528901       0.87035375        1 
H      -4.03573203       1.20785471      -0.38584110        1 
