27
Lattice="0.0 0.0 0.0 0.0 0.0 0.0 0.0 0.0 0.0" Properties=species:S:1:pos:R:3:Z:I:1 pbc="F F F"
C       0.48073570      -0.90952551       0.27319359        6 
C      -0.69060177      -0.23659998      -0.08856291        6 
C       1.78009485      -0.16443618       0.34999959        6 
C      -0.64192467       1.24865758      -0.30486529        6 
O       2.60179282      -0.53628144      -0.64587981        8 
O       2.07515260       0.62341897       1.21600421        8 
O      -1.21228358       1.90439697       0.71883490        8 
O      -0.18219296       1.78668663      -1.28317653        8 
C      -1.20179667       3.34352509       0.63208617        6 
C       3.89123291       0.10719199      -0.67843387        6 
C       0.45891057      -2.28737972       0.49184468        6 
C      -0.74070012      -2.98120163       0.37905800        6 
C      -1.90490797      -2.30773033       0.01788337        6 
C      -1.90530902      -0.93042218      -0.21606186        6 
H      -0.17423018       3.70791095       0.60484647        1 
H       3.76984487       1.18307992      -0.81036149        1 
H      -2.83329769      -2.85937193      -0.08687574        1 
H      -1.72958438       3.67532747      -0.26325325        1 
H      -1.70759186       3.68919271       1.53043321        1 
H       4.40728351      -0.32814133      -1.53088460        1 
H       4.43798849      -0.08593504       0.24580371        1 
H      -0.76773750      -4.04998559       0.55821545        1 
H       1.37445682      -2.80767886       0.74555983        1 
C      -3.17945259      -0.21744229      -0.60053182        6 
H      -3.03021473       0.42306456      -1.47417525        1 
H      -3.53360448       0.41812357       0.21602264        1 
H      -3.96722185      -0.93381168      -0.83941684        1 
