27
Lattice="0.0 0.0 0.0 0.0 0.0 0.0 0.0 0.0 0.0" Properties=species:S:1:pos:R:3:Z:I:1 pbc="F F F"
C       0.32764988      -1.13712542      -0.15918427        6 
C      -0.65246751      -0.12783719      -0.00391599        6 
C       1.80766172      -0.89016269      -0.10427659        6 
C      -0.25535492       1.27468340      -0.36043483        6 
O       2.12099101       0.11935359       0.72747239        8 
O       2.63074397      -1.61740620      -0.60924176        8 
O      -1.01686098       2.21405154       0.23698390        8 
O       0.66739811       1.55004107      -1.09014305        8 
C      -0.69127382       3.57913725      -0.08153881        6 
C       3.51919421       0.43353907       0.83338138        6 
C      -0.03387428      -2.48180091      -0.15580235        6 
C      -1.36585129      -2.84552427       0.00859697        6 
C      -2.32670722      -1.86203680       0.19079927        6 
C      -2.00551446      -0.49674232       0.17344642        6 
H       0.32443057       3.81251900       0.24095200        1 
H       4.08333540      -0.43540929       1.17513890        1 
H      -3.36387862      -2.14929933       0.32496483        1 
H      -0.77356913       3.75118596      -1.15572758        1 
H      -1.41480369       4.18268495       0.46210465        1 
H       3.57955481       1.24181948       1.55874613        1 
H       3.90370978       0.75827128      -0.13487065        1 
H      -1.65092204      -3.89152722       0.00734500        1 
H       0.74226176      -3.22893275      -0.26091081        1 
C      -3.14888471       0.48478851       0.30837468        6 
H      -3.21472842       1.15497924      -0.55138891        1 
H      -3.03280974       1.11493885       1.19084913        1 
H      -4.09296330      -0.05653833       0.38838389        1 
