27
Lattice="0.0 0.0 0.0 0.0 0.0 0.0 0.0 0.0 0.0" Properties=species:S:1:pos:R:3:Z:I:1 pbc="F F F"
C       0.74675217       0.69800402      -0.09521873        6 
C      -0.61562985       0.32721522       0.00592516        6 
C       1.82109385      -0.32054029       0.15399123        6 
C      -1.00861905      -1.08718585      -0.33038311        6 
O       3.05049590       0.16297879      -0.13771900        8 
O       1.64087137      -1.44092109       0.56327712        8 
O      -2.00705034      -1.54533102       0.45361975        8 
O      -0.47484831      -1.75462766      -1.17927048        8 
C      -2.41817146      -2.90389914       0.21174651        6 
C       4.14177089      -0.74885381       0.07773675        6 
C       1.09964435       2.04714401      -0.11625432        6 
C       0.11668256       3.03033779      -0.06508958        6 
C      -1.21707725       2.66559231       0.04417554        6 
C      -1.61238653       1.32064649       0.06419087        6 
H      -2.78665892      -3.01757049      -0.80917695        1 
H       4.18670982      -1.05103903       1.12526949        1 
H      -1.98149953       3.43377195       0.08987493        1 
H      -1.58019791      -3.58421327       0.36908317        1 
H      -3.21196855      -3.09745615       0.93009158        1 
H       5.03746879      -0.19910580      -0.20293235        1 
H       4.02339974      -1.63651935      -0.54564116        1 
H       0.39466392       4.07761977      -0.09240808        1 
H       2.14597584       2.31672174      -0.14791952        1 
C      -3.09400985       1.01313931       0.10176906        6 
H      -3.37049674       0.49372927       1.02040397        1 
H      -3.39728064       0.37082758      -0.72856164        1 
H      -3.66971890       1.93803304       0.03841545        1 
