27
Lattice="0.0 0.0 0.0 0.0 0.0 0.0 0.0 0.0 0.0" Properties=species:S:1:pos:R:3:Z:I:1 pbc="F F F"
C       0.61002352      -0.94013419       0.15760397        6 
C      -0.63556897      -0.29337834       0.00476334        6 
C       1.92065744      -0.20834845       0.27321167        6 
C      -0.62455059       1.19587283       0.14889152        6 
O       2.30232099       0.27744623      -0.92104421        8 
O       2.59854074      -0.18782746       1.26983156        8 
O      -1.83835866       1.76927773       0.02814081        8 
O       0.37374143       1.84730776       0.36239524        8 
C      -1.87673690       3.19893431       0.18954634        6 
C       3.51054005       1.05815277      -0.91859340        6 
C       0.69797398      -2.32892417       0.17242059        6 
C      -0.44900836      -3.09572403       0.00865343        6 
C      -1.67521707      -2.46911801      -0.16883050        6 
C      -1.80693689      -1.07514628      -0.16531259        6 
H      -1.49956966       3.48103020       1.17331597        1 
H       3.38067474       1.93431747      -0.28131140        1 
H      -2.56614916      -3.07265219      -0.30261081        1 
H      -1.27444646       3.68539840      -0.57881194        1 
H      -2.92505134       3.47054912       0.08574190        1 
H       3.66476212       1.35558459      -1.95348574        1 
H       4.35251488       0.46505443      -0.55856429        1 
H      -0.38746779      -4.17819819       0.01463045        1 
H       1.66396549      -2.80009036       0.30695167        1 
C      -3.20310961      -0.52173373      -0.34298975        6 
H      -3.26217570       0.16593308      -1.18735106        1 
H      -3.53238749       0.03301206       0.53730707        1 
H      -3.90259375      -1.34184737      -0.51467751        1 
