27
Lattice="0.0 0.0 0.0 0.0 0.0 0.0 0.0 0.0 0.0" Properties=species:S:1:pos:R:3:Z:I:1 pbc="F F F"
C      -0.10391611      -1.11907199       0.25449331        6 
C      -0.75407933       0.08933866      -0.06586448        6 
C       1.35294841      -1.37852996      -0.00205828        6 
C      -0.02576935       1.39733483      -0.19793110        6 
O       2.13853969      -0.29333530       0.10919832        8 
O       1.77010929      -2.45437675      -0.36649502        8 
O       0.54083196       1.74359112       0.97068711        8 
O      -0.07610972       2.12587502      -1.16047530        8 
C       1.27741344       2.97758664       0.97279370        6 
C       3.51625064      -0.47663292      -0.26704164        6 
C      -0.86452771      -2.25846157       0.53925093        6 
C      -2.25000303      -2.19594672       0.54846729        6 
C      -2.88669299      -1.00782915       0.20457652        6 
C      -2.16211782       0.14528318      -0.10926207        6 
H       2.12335544       2.90897804       0.28607940        1 
H       3.97878168      -1.25080491       0.34602210        1 
H      -3.97045776      -0.96567621       0.18357213        1 
H       0.63928341       3.81053156       0.67462219        1 
H       1.62555225       3.10464443       1.99530692        1 
H       3.99212900       0.48601342      -0.09462913        1 
H       3.58772410      -0.75932057      -1.31844406        1 
H      -2.83396238      -3.07610706       0.79213792        1 
H      -0.35038452      -3.19300842       0.72279818        1 
C      -2.90389602       1.41377781      -0.46164994        6 
H      -2.67046744       1.73882017      -1.47705881        1 
H      -2.63507901       2.23721334       0.20626083        1 
H      -3.98080463       1.25659119      -0.38399113        1 
