27
Lattice="0.0 0.0 0.0 0.0 0.0 0.0 0.0 0.0 0.0" Properties=species:S:1:pos:R:3:Z:I:1 pbc="F F F"
C      -0.17219189      -1.02591398      -0.21426582        6 
C      -0.79892846       0.21067035       0.06775657        6 
C       1.30395095      -1.26420370      -0.10047873        6 
C      -0.03753099       1.49379801      -0.04957998        6 
O       1.83772947      -0.58963860       0.93840261        8 
O       1.91593775      -2.07925413      -0.74927819        8 
O       1.06709498       1.34264616      -0.81407956        8 
O      -0.40851135       2.57607513       0.34396255        8 
C       1.86243660       2.51978107      -1.02132438        6 
C       3.24434559      -0.78689483       1.15562106        6 
C      -0.93189597      -2.17673669      -0.40737248        6 
C      -2.31719658      -2.12340143      -0.29117737        6 
C      -2.93259563      -0.92452714       0.03841622        6 
C      -2.20422837       0.26162997       0.20901971        6 
H       1.26971323       3.30432340      -1.49368014        1 
H       3.46126450      -1.84156400       1.33063544        1 
H      -4.01095507      -0.88996408       0.14832636        1 
H       2.25259720       2.88839908      -0.07072874        1 
H       2.67446121       2.20661180      -1.67393060        1 
H       3.48701188      -0.19355011       2.03442043        1 
H       3.81323989      -0.44275751       0.28982499        1 
H      -2.91120272      -3.01838462      -0.43860210        1 
H      -0.42367329      -3.10892215      -0.61914131        1 
C      -2.97428373       1.52596657       0.50746159        6 
H      -2.81911945       2.28535089      -0.26175616        1 
H      -2.65410155       1.97524783       1.44821354        1 
H      -4.04135272       1.30347229       0.56639938        1 
