27
Lattice="0.0 0.0 0.0 0.0 0.0 0.0 0.0 0.0 0.0" Properties=species:S:1:pos:R:3:Z:I:1 pbc="F F F"
C       0.42217999      -1.08549206       0.16166734        6 
C      -0.64967086      -0.17519128       0.01027397        6 
C       1.86934509      -0.68404667       0.16019664        6 
C      -0.35718780       1.26184311       0.32022959        6 
O       2.14188564       0.16929000      -0.84434087        8 
O       2.71168606      -1.18894602       0.86261457        8 
O      -1.29298708       2.11599243      -0.14164657        8 
O       0.63140532       1.63940970       0.90570975        8 
C      -1.06320455       3.50897309       0.13765771        6 
C       3.49736124       0.64261693      -0.91093033        6 
C       0.19770402      -2.45890222       0.15231002        6 
C      -1.09035969      -2.95037748      -0.02866435        6 
C      -2.14354713      -2.06457138      -0.20359503        6 
C      -1.96137530      -0.67452734      -0.17073241        6 
H      -1.00531131       3.67861033       1.21373707        1 
H       3.74120385       1.19966590      -0.00481725        1 
H      -3.14663752      -2.45173033      -0.34461297        1 
H      -0.13438118       3.84151297      -0.32763986        1 
H      -1.91601097       4.03220060      -0.28946505        1 
H       3.53370461       1.29351853      -1.78177230        1 
H       4.19153690      -0.19146980      -1.02401886        1 
H      -1.27059039      -4.01937452      -0.04008129        1 
H       1.04025705      -3.12855760       0.26965828        1 
C      -3.20065553       0.18300617      -0.30151809        6 
H      -3.15361059       0.82466226      -1.18232605        1 
H      -3.33299796       0.84051740       0.55959068        1 
H      -4.08219459      -0.45526156      -0.38314901        1 
