27
Lattice="0.0 0.0 0.0 0.0 0.0 0.0 0.0 0.0 0.0" Properties=species:S:1:pos:R:3:Z:I:1 pbc="F F F"
C       0.57490033      -0.78807702       0.13544597        6 
C      -0.72111781      -0.30286584      -0.10498894        6 
C       1.74329569       0.13088835      -0.00120751        6 
C      -0.99566076       1.16180596      -0.31900288        6 
O       2.89333321      -0.54628821      -0.20551456        8 
O       1.69561663       1.33695253       0.07735816        8 
O      -1.04550682       1.81208006       0.85284308        8 
O      -1.25729785       1.65587554      -1.38832458        8 
C      -1.23226295       3.23758529       0.77292739        6 
C       4.08112793       0.25610676      -0.33000428        6 
C       0.77013832      -2.15332530       0.37659003        6 
C      -0.31727842      -3.01580908       0.41142621        6 
C      -1.59801408      -2.52859149       0.16463264        6 
C      -1.82283411      -1.17522045      -0.09976127        6 
H      -0.39151540       3.68775213       0.24328396        1 
H       3.98998231       0.94123818      -1.17393903        1 
H      -2.44356386      -3.20818987       0.17946639        1 
H      -2.16263973       3.47592369       0.25520491        1 
H      -1.26455460       3.58232932       1.80388717        1 
H       4.89014122      -0.45181096      -0.49559680        1 
H       4.25110656       0.83014090       0.58224331        1 
H      -0.16824201      -4.06979616       0.61617664        1 
H       1.77328313      -2.52508047       0.53244567        1 
C      -3.22177437      -0.67425887      -0.36999952        6 
H      -3.31651607      -0.30831198      -1.39552481        1 
H      -3.48445893       0.15333102       0.29501902        1 
H      -3.95287802      -1.47061545      -0.22139294        1 
