27
Lattice="0.0 0.0 0.0 0.0 0.0 0.0 0.0 0.0 0.0" Properties=species:S:1:pos:R:3:Z:I:1 pbc="F F F"
C       0.44498658      -0.73006952      -0.19691689        6 
C      -0.81076507      -0.15622858       0.14208718        6 
C       1.72531998      -0.03684057       0.18834885        6 
C      -1.03114857       1.33105773       0.09973170        6 
O       2.79623867      -0.85129644       0.01849148        8 
O       1.83914041       1.09234289       0.59754067        8 
O      -0.23998415       1.90570900      -0.82421284        8 
O      -1.95112779       1.91815510       0.62371017        8 
C      -0.36737827       3.32768403      -0.96901199        6 
C       4.07009625      -0.28955403       0.37361553        6 
C       0.51655445      -2.07901939      -0.54906564        6 
C      -0.63041912      -2.86499811      -0.57743362        6 
C      -1.84135632      -2.32184365      -0.18019128        6 
C      -1.96515280      -0.96948547       0.17334556        6 
H      -1.38965210       3.59880184      -1.23740985        1 
H       4.28905888       0.58308109      -0.24393169        1 
H      -2.72850868      -2.94535534      -0.16206112        1 
H      -0.09216363       3.82558093      -0.03766808        1 
H       0.32504844       3.59893519      -1.76277924        1 
H       4.79446012      -1.08035946       0.19055571        1 
H       4.07855249       0.00455776       1.42424887        1 
H      -0.56902845      -3.90696465      -0.87026152        1 
H       1.48049135      -2.51611115      -0.76480949        1 
C      -3.34462638      -0.46512129       0.53091040        6 
H      -3.67385165       0.33060259      -0.14067071        1 
H      -3.36920987      -0.04447500       1.53665028        1 
H      -4.06267372      -1.28557296       0.47419806        1 
