27
Lattice="0.0 0.0 0.0 0.0 0.0 0.0 0.0 0.0 0.0" Properties=species:S:1:pos:R:3:Z:I:1 pbc="F F F"
C      -0.17832237      -1.03890041       0.21472118        6 
C      -0.79629932       0.20108825      -0.06751616        6 
C       1.29524696      -1.28615507       0.09286562        6 
C      -0.02106717       1.47736492       0.02643052        6 
O       1.85354423      -0.52457211      -0.87060867        8 
O       1.88917120      -2.16706513       0.66888787        8 
O       1.00203541       1.36190949       0.90241369        8 
O      -0.32694106       2.53063065      -0.48309926        8 
C       1.82269569       2.52732710       1.07434348        6 
C       3.25626706      -0.73351951      -1.10219916        6 
C      -0.94879923      -2.18409565       0.40313464        6 
C      -2.33360416      -2.11755797       0.29006023        6 
C      -2.93939386      -0.91174319      -0.03380281        6 
C      -2.19964401       0.26686913      -0.20648157        6 
H       2.30394735       2.79588969       0.13194135        1 
H       3.82989019      -0.48483179      -0.20743965        1 
H      -4.01783179      -0.86652528      -0.13985158        1 
H       1.22486367       3.37006047       1.42404373        1 
H       2.56583805       2.24917400       1.81852263        1 
H       3.51580523      -0.06744024      -1.92205821        1 
H       3.44876504      -1.77239814      -1.37361800        1 
H      -2.93531491      -3.00774314       0.43500669        1 
H      -0.44767757      -3.12173853       0.60718157        1 
C      -2.95202938       1.54192531      -0.50520500        6 
H      -2.66026318       1.95711961      -1.47084308        1 
H      -2.74853023       2.31766528       0.23593317        1 
H      -4.02566718       1.34532809      -0.51504938        1 
