27
Lattice="0.0 0.0 0.0 0.0 0.0 0.0 0.0 0.0 0.0" Properties=species:S:1:pos:R:3:Z:I:1 pbc="F F F"
C       0.07848623      -1.21537291      -0.12864907        6 
C      -0.67143577      -0.02180859      -0.02629557        6 
C       1.57353209      -1.30217927      -0.00464051        6 
C      -0.05781879       1.30456464      -0.37990072        6 
O       2.16368123      -0.11558080       0.20611118        8 
O       2.17951392      -2.35009711       0.02929307        8 
O      -0.31569377       2.24708627       0.55004711        8 
O       0.59305816       1.50813498      -1.37312418        8 
C       0.21754982       3.55557975       0.27672193        6 
C       3.58961195      -0.13868782       0.38439795        6 
C      -0.57574401      -2.44949798      -0.09073973        6 
C      -1.95719070      -2.51531020       0.02767890        6 
C      -2.69097057      -1.34198595       0.14290954        6 
C      -2.07416362      -0.08602817       0.10625730        6 
H       1.30448398       3.51119184       0.19465545        1 
H       3.85439285      -0.72117909       1.26832201        1 
H      -3.77002322      -1.39176735       0.24278461        1 
H      -0.19539376       3.95062390      -0.65302152        1 
H      -0.07944609       4.17215729       1.12210014        1 
H       3.88010552       0.90224866       0.50628233        1 
H       4.07395192      -0.57218557      -0.49150066        1 
H      -2.45809332      -3.47644253       0.04633339        1 
H       0.02559041      -3.34830996      -0.12912548        1 
C      -2.94849533       1.14715561       0.16045996        6 
H      -2.74635090       1.82372956      -0.67413903        1 
H      -2.78451130       1.71277552       1.07961814        1 
H      -4.00133416       0.86489517       0.11187959        1 
