27
Lattice="0.0 0.0 0.0 0.0 0.0 0.0 0.0 0.0 0.0" Properties=species:S:1:pos:R:3:Z:I:1 pbc="F F F"
C       0.72123668       0.67887895      -0.05781545        6 
C      -0.62440864       0.26298903       0.09354688        6 
C       1.91541578      -0.17374575       0.27833952        6 
C      -0.93550555      -1.21091718       0.02902277        6 
O       2.88843690      -0.02810665      -0.65408253        8 
O       2.02608791      -0.87077802       1.25037013        8 
O      -2.13646565      -1.42707430      -0.56487519        8 
O      -0.22299604      -2.11976999       0.36979065        8 
C      -2.52373571      -2.80419211      -0.71090897        6 
C       4.10073251      -0.76249495      -0.40094468        6 
C       1.00875890       2.02491331      -0.29522266        6 
C      -0.00970091       2.97005294      -0.31692754        6 
C      -1.31632863       2.57407800      -0.07232838        6 
C      -1.65517855       1.22869826       0.11590659        6 
H      -1.81056443      -3.33757768      -1.34126081        1 
H       4.55710931      -0.43561271       0.53486031        1 
H      -2.10486578       3.31815671      -0.03830213        1 
H      -2.57466442      -3.29444619       0.26265652        1 
H      -3.50507795      -2.77861539      -1.18027904        1 
H       4.75248855      -0.54446601      -1.24414064        1 
H       3.89025357      -1.83131482      -0.34158092        1 
H       0.22047897       4.01473172      -0.49194767        1 
H       2.03929809       2.32570402      -0.42981840        1 
C      -3.11527182       0.91468304       0.36665575        6 
H      -3.24802050       0.11981508       1.10059394        1 
H      -3.61592862       0.59248410      -0.54860101        1 
H      -3.62000945       1.80956944       0.73646916        1 
