27
Lattice="0.0 0.0 0.0 0.0 0.0 0.0 0.0 0.0 0.0" Properties=species:S:1:pos:R:3:Z:I:1 pbc="F F F"
C       0.00337509      -1.22715056      -0.07449476        6 
C      -0.69743557      -0.00473125      -0.04126554        6 
C       1.49479628      -1.35162047      -0.00623299        6 
C      -0.01147463       1.28814072      -0.38347249        6 
O       2.10650071      -0.18527135       0.26349650        8 
O       2.08762334      -2.40372234      -0.08456734        8 
O      -0.12395878       2.19603909       0.60518429        8 
O       0.56045708       1.49458606      -1.42409275        8 
C       0.50521855       3.46733408       0.35830851        6 
C       3.54028434      -0.22700708       0.35534498        6 
C      -0.69965273      -2.43229200       0.00963008        6 
C      -2.08366802      -2.43352943       0.11496524        6 
C      -2.77111567      -1.22573740       0.15442592        6 
C      -2.10110861      -0.00078963       0.06855600        6 
H       1.57353950       3.33035361       0.18551208        1 
H       3.85132528      -0.90228290       1.15380737        1 
H      -3.85293631      -1.22614091       0.23597832        1 
H       0.06060507       3.95202649      -0.51240519        1 
H       0.33278467       4.05594356       1.25655525        1 
H       3.84450505       0.79418525       0.57326341        1 
H       3.96968062      -0.56200125      -0.58975729        1 
H      -2.62514723      -3.37065222       0.17494066        1 
H      -0.13655199      -3.35652062       0.00780198        1 
C      -2.90374917       1.27988201       0.05427333        6 
H      -2.64699279       1.90642243      -0.80479848        1 
H      -2.72239546       1.87362490       0.95293635        1 
H      -3.97095731       1.05992323      -0.00297300        1 
