27
Lattice="0.0 0.0 0.0 0.0 0.0 0.0 0.0 0.0 0.0" Properties=species:S:1:pos:R:3:Z:I:1 pbc="F F F"
C       0.19704219      -1.22089625       0.10941830        6 
C      -0.68682277      -0.12419867       0.11767126        6 
C       1.68182744      -1.12174208      -0.09068694        6 
C      -0.23351594       1.29149922       0.35727249        6 
O       2.22958336      -0.02740190       0.45414908        8 
O       2.31364619      -1.93637029      -0.72538437        8 
O      -0.45679243       2.05943642      -0.73169092        8 
O       0.25961408       1.70107404       1.37503053        8 
C      -0.10238137       3.44946109      -0.60388444        6 
C       3.64195341       0.14858065       0.24546860        6 
C      -0.31849995      -2.52071593       0.04752276        6 
C      -1.68753794      -2.74105509       0.04589901        6 
C      -2.55744131      -1.65562467       0.05260313        6 
C      -2.07980260      -0.34383924       0.08468964        6 
H      -0.66452293       3.91272502       0.20862556        1 
H       4.19595431      -0.69035384       0.66893983        1 
H      -3.62913370      -1.82332911       0.03886365        1 
H       0.96536486       3.55227027      -0.40495650        1 
H      -0.36085966       3.90304743      -1.55799778        1 
H       3.89248603       1.07333771       0.75983572        1 
H       3.86387833       0.22305863      -0.82040877        1 
H      -2.07702798      -3.75236416       0.02228698        1 
H       0.37562163      -3.34853116      -0.01690608        1 
C      -3.06468089       0.80356088       0.10882193        6 
H      -3.02377991       1.37771463      -0.81967694        1 
H      -2.85858153       1.49448111       0.93125797        1 
H      -4.08190405       0.43012676       0.23619280        1 
