27
Lattice="0.0 0.0 0.0 0.0 0.0 0.0 0.0 0.0 0.0" Properties=species:S:1:pos:R:3:Z:I:1 pbc="F F F"
C       0.19869344      -0.91383886       0.17528718        6 
C      -0.87471720      -0.02057072      -0.00414424        6 
C       1.64143243      -0.50712418       0.31907934        6 
C      -0.65973967       1.44399517      -0.25308568        6 
O       2.35618882      -0.96900709      -0.73224850        8 
O       2.12621717       0.09113113       1.24338801        8 
O       0.18184931       1.99791043       0.62812368        8 
O      -1.20122856       2.06261619      -1.14151638        8 
C       0.48974627       3.39024644       0.43383954        6 
C       3.77520420      -0.72515749      -0.68510809        6 
C      -0.04480629      -2.28726540       0.26706881        6 
C      -1.34517215      -2.77244629       0.23571599        6 
C      -2.40654883      -1.88801221       0.08314024        6 
C      -2.19673796      -0.51462767      -0.06324603        6 
H       0.89985225       3.55469144      -0.56368016        1 
H       3.97714134       0.34647313      -0.65286268        1 
H      -3.42265675      -2.26683580       0.06265378        1 
H      -0.40778710       3.99850300       0.55673899        1 
H       1.22517129       3.62755889       1.19864798        1 
H       4.17314277      -1.16321685      -1.59760428        1 
H       4.21463081      -1.19924400       0.19407523        1 
H      -1.53089691      -3.83648145       0.32885523        1 
H       0.78996581      -2.96919184       0.37372549        1 
C      -3.39391730       0.38371612      -0.27095769        6 
H      -3.44624194       0.73091970      -1.30483462        1 
H      -3.35240524       1.27504722       0.35850043        1 
H      -4.31285392      -0.15687521      -0.03715729        1 
