27
Lattice="0.0 0.0 0.0 0.0 0.0 0.0 0.0 0.0 0.0" Properties=species:S:1:pos:R:3:Z:I:1 pbc="F F F"
C       0.50822851      -0.75342875      -0.16865041        6 
C      -0.77353507      -0.24313993       0.13569495        6 
C       1.72845263       0.06909258       0.12051182        6 
C      -1.04415764       1.23409780       0.21493778        6 
O       2.84973498      -0.68843617       0.11294884        8 
O       1.75378815       1.25880272       0.32955194        8 
O      -0.60499560       1.85064741      -0.89581675        8 
O      -1.73416931       1.76884710       1.05037222        8 
C      -0.75335954       3.27957334      -0.92489553        6 
C       4.07913994       0.00923249       0.37474167        6 
C       0.65708634      -2.10903946      -0.47799937        6 
C      -0.45173253      -2.94536522      -0.51649072        6 
C      -1.70533558      -2.44480436      -0.18921736        6 
C      -1.89457103      -1.09636191       0.13653921        6 
H      -1.79696164       3.56421967      -0.78305435        1 
H       4.25089512       0.77745206      -0.38079044        1 
H      -2.56607757      -3.10476304      -0.19824188        1 
H      -0.14097867       3.72855609      -0.14106876        1 
H      -0.39956735       3.58689940      -1.90644920        1 
H       4.85600813      -0.75111498       0.33329399        1 
H       4.04950613       0.47612860       1.36031048        1 
H      -0.33451932      -3.99126375      -0.77626065        1 
H       1.64534998      -2.50251225      -0.66801817        1 
C      -3.29247356      -0.60930574       0.44232583        6 
H      -3.57965120       0.22660093      -0.20048294        1 
H      -3.37213767      -0.25377799       1.47089587        1 
H      -4.01273954      -1.41578678       0.29367151        1 
