27
Lattice="0.0 0.0 0.0 0.0 0.0 0.0 0.0 0.0 0.0" Properties=species:S:1:pos:R:3:Z:I:1 pbc="F F F"
C      -0.25166007      -1.11149968       0.06359104        6 
C      -0.83303567       0.16146977      -0.03719424        6 
C       1.22753759      -1.31155540       0.16593198        6 
C       0.03608197       1.37555872      -0.17265455        6 
O       1.88259557      -0.66289454      -0.81815196        8 
O       1.77261106      -1.96594848       1.02044568        8 
O       0.81907911       1.53166034       0.91414637        8 
O       0.05874918       2.10744203      -1.13035507        8 
C       1.79049256       2.59146375       0.84382558        6 
C       3.31829178      -0.74778386      -0.78397711        6 
C      -1.06107484      -2.24593935       0.15263114        6 
C      -2.44276201      -2.11535735       0.09745398        6 
C      -3.01639545      -0.85206708      -0.02135366        6 
C      -2.23125006       0.30149531      -0.09362946        6 
H       2.44606111       2.44219799      -0.01562865        1 
H       3.70077255      -0.33732925       0.15205714        1 
H      -4.09624368      -0.75434529      -0.05523186        1 
H       1.29577877       3.55954703       0.75430264        1 
H       2.35128363       2.53157520       1.77377120        1 
H       3.66207211      -0.16176329      -1.63323623        1 
H       3.64004251      -1.78596962      -0.87749712        1 
H      -3.07422148      -2.99473370       0.15283905        1 
H      -0.59845946      -3.21895140       0.26275088        1 
C      -2.88420202       1.65665779      -0.22365993        6 
H      -2.66791383       2.10060915      -1.19790394        1 
H      -2.52034002       2.35312198       0.53680344        1 
H      -3.96655343       1.57326070      -0.11235688        1 
