27
Lattice="0.0 0.0 0.0 0.0 0.0 0.0 0.0 0.0 0.0" Properties=species:S:1:pos:R:3:Z:I:1 pbc="F F F"
C       0.29172763      -1.20168504       0.11968863        6 
C      -0.67136641      -0.17200855       0.11192993        6 
C       1.76668958      -1.00394404      -0.09098823        6 
C      -0.32743039       1.27184275       0.36416189        6 
O       2.24599756       0.13451422       0.42463842        8 
O       2.44672683      -1.78895400      -0.71375294        8 
O      -0.67346739       2.04384284      -0.69003448        8 
O       0.19205198       1.69890346       1.36141380        8 
C      -0.42933437       3.45517808      -0.54227790        6 
C       3.64246767       0.39613053       0.20000333        6 
C      -0.12594710      -2.53658128       0.07134518        6 
C      -1.47459622      -2.85848497       0.07083082        6 
C      -2.42230288      -1.84108378       0.06324797        6 
C      -2.04494268      -0.49657609       0.08109164        6 
H      -1.01084819       3.85735141       0.28916803        1 
H       4.25234951      -0.40046398       0.62824487        1 
H      -3.47830178      -2.08944060       0.05266882        1 
H       0.63014379       3.64122442      -0.36124694        1 
H      -0.74365544       3.90320289      -1.48219745        1 
H       3.83855414       1.34165393       0.70011105        1 
H       3.84927532       0.47050178      -0.86888986        1 
H      -1.78838097      -3.89602166       0.05899108        1 
H       0.62796790      -3.31094204       0.01535704        1 
C      -3.11967824       0.56773123       0.10100988        6 
H      -3.14089563       1.12540859      -0.83783508        1 
H      -2.95821038       1.28909778       0.90663464        1 
H      -4.10032613       0.11390596       0.25304901        1 
