27
Lattice="0.0 0.0 0.0 0.0 0.0 0.0 0.0 0.0 0.0" Properties=species:S:1:pos:R:3:Z:I:1 pbc="F F F"
C      -0.23115164      -1.06316027       0.13952602        6 
C      -0.82517384       0.20148691      -0.03378001        6 
C       1.24977813      -1.28143573       0.14076904        6 
C       0.01655996       1.43686849      -0.04655380        6 
O       1.84375309      -0.63181717      -0.88210894        8 
O       1.83661747      -2.00418519       0.90861603        8 
O       0.96672116       1.38244712       0.91159394        8 
O      -0.14662658       2.39184027      -0.76763286        8 
C       1.89655199       2.47820853       0.94524630        6 
C       3.27243788      -0.77201592      -0.97128300        6 
C      -1.02348815      -2.20465283       0.25268479        6 
C      -2.40663968      -2.09739101       0.16355771        6 
C      -2.99257083      -0.85200858      -0.03275832        6 
C      -2.22618351       0.31508593      -0.13152742        6 
H       2.42001516       2.56023545      -0.00889285        1 
H       3.74651075      -0.42469371      -0.05188302        1 
H      -4.07222364      -0.77305290      -0.10060020        1 
H       1.37736167       3.41508593       1.15179933        1 
H       2.59201622       2.24094848       1.74728009        1 
H       3.57041546      -0.15646692      -1.81708976        1 
H       3.54250772      -1.81522351      -1.14197232        1 
H      -3.02689127      -2.98287777       0.24430384        1 
H      -0.54687445      -3.16608790       0.39776673        1 
C      -2.92840098       1.63872326      -0.31953192        6 
H      -2.72141107       2.05368342      -1.30775696        1 
H      -2.59730529       2.38370457       0.40753517        1 
H      -4.00678225       1.51041736      -0.21153168        1 
