27
Lattice="0.0 0.0 0.0 0.0 0.0 0.0 0.0 0.0 0.0" Properties=species:S:1:pos:R:3:Z:I:1 pbc="F F F"
C       0.54735366      -0.97457150       0.29441525        6 
C      -0.58897603      -0.17629469      -0.01971221        6 
C       1.98107372      -0.53570633       0.12579344        6 
C      -0.50055520       1.28269990       0.34089793        6 
O       2.10660691       0.48694237      -0.73379504        8 
O       2.92709313      -1.18273793       0.51646418        8 
O      -1.61874479       1.98119867       0.04229316        8 
O       0.46048163       1.80787466       0.84951554        8 
C      -1.60206065       3.37193266       0.40782680        6 
C       3.44943619       0.90315801      -1.02582707        6 
C       0.41935296      -2.35345283       0.43359526        6 
C      -0.80992414      -2.97310412       0.23314428        6 
C      -1.89427676      -2.21341281      -0.17159687        6 
C      -1.82421218      -0.81523604      -0.28505199        6 
H      -1.45516615       3.48275605       1.48313407        1 
H       3.95057206       1.23100516      -0.11378669        1 
H      -2.83972377      -2.70166122      -0.38117090        1 
H      -0.80188343       3.89525858      -0.11749398        1 
H      -2.57482078       3.75804179       0.11026152        1 
H       3.34751729       1.73174547      -1.72304330        1 
H       4.01642779       0.08618567      -1.47553356        1 
H      -0.90670166      -4.04664373       0.34921775        1 
H       1.30836384      -2.93107873       0.65090048        1 
C      -3.10737317      -0.11196081      -0.67397375        6 
H      -2.94836300       0.61716948      -1.46726411        1 
H      -3.54167478       0.42890364       0.16963752        1 
H      -3.83521665      -0.84975702      -1.01684214        1 
