27
Lattice="0.0 0.0 0.0 0.0 0.0 0.0 0.0 0.0 0.0" Properties=species:S:1:pos:R:3:Z:I:1 pbc="F F F"
C      -0.16918628      -1.00636030      -0.19061198        6 
C      -0.83474166       0.21989376       0.03143149        6 
C       1.32367300      -1.17072325      -0.18700248        6 
C      -0.09662671       1.51727438      -0.05335116        6 
O       1.84398865      -0.80018570       1.00020494        8 
O       1.96148796      -1.68012504      -1.07469381        8 
O       1.13013954       1.35981470      -0.59564279        8 
O      -0.54591840       2.60706227       0.22047734        8 
C       1.91786836       2.54881725      -0.76053811        6 
C       3.27072533      -0.92854253       1.12294670        6 
C      -0.88741410      -2.19167077      -0.32440185        6 
C      -2.27233824      -2.18128207      -0.20079564        6 
C      -2.93031479      -0.98699912       0.05809806        6 
C      -2.24438653       0.22943596       0.16689060        6 
H       1.39200124       3.27151471      -1.38578822        1 
H       3.57836681      -1.96388864       0.96852939        1 
H      -4.00948753      -0.98483850       0.16420843        1 
H       2.13286029       3.00092137       0.20925321        1 
H       2.83495313       2.21975020      -1.24423991        1 
H       3.50503223      -0.60525065       2.13465938        1 
H       3.77196971      -0.29364704       0.38984959        1 
H      -2.83497269      -3.10298885      -0.29850799        1 
H      -0.35395136      -3.11593088      -0.50954978        1 
C      -3.06068006       1.47760485       0.40398648        6 
H      -2.93552768       2.20117423      -0.40387027        1 
H      -2.75635548       1.98725553       1.31892900        1 
H      -4.11817917       1.21735245       0.47888290        1 
