27
Lattice="0.0 0.0 0.0 0.0 0.0 0.0 0.0 0.0 0.0" Properties=species:S:1:pos:R:3:Z:I:1 pbc="F F F"
C       0.11339777      -0.87841097      -0.03264405        6 
C      -0.89958783       0.10726955       0.06495847        6 
C       1.54812452      -0.63884779       0.34734092        6 
C      -0.57474346       1.56528791      -0.06389645        6 
O       2.39039186      -1.16910471      -0.56498124        8 
O       1.90973596      -0.12035313       1.37283199        8 
O       0.74162077       1.78756735      -0.23380301        8 
O      -1.39095711       2.45669044      -0.14479558        8 
C       1.14221226       3.15490474      -0.40777847        6 
C       3.78993226      -1.10090815      -0.23716260        6 
C      -0.22285379      -2.21703580      -0.23046217        6 
C      -1.55746734      -2.60488072      -0.28215919        6 
C      -2.55242758      -1.65399596      -0.11745909        6 
C      -2.25780097      -0.29238397       0.03776343        6 
H       0.70136758       3.57075558      -1.31540655        1 
H       4.10654700      -0.06170167      -0.13676672        1 
H      -3.59230114      -1.96163738      -0.12780447        1 
H       0.83390750       3.75415135       0.44986953        1 
H       2.22693383       3.12753836      -0.48417005        1 
H       4.30514426      -1.58030810      -1.06661231        1 
H       3.98892693      -1.62783449       0.69758336        1 
H      -1.81695680      -3.64731515      -0.42895374        1 
H       0.56540969      -2.95461057      -0.31047308        1 
C      -3.42649549       0.65771829       0.15552785        6 
H      -3.51654071       1.29302090      -0.72808916        1 
H      -3.31894626       1.33218160       1.00497507        1 
H      -4.35050843       0.08738969       0.27035827        1 
