27
Lattice="0.0 0.0 0.0 0.0 0.0 0.0 0.0 0.0 0.0" Properties=species:S:1:pos:R:3:Z:I:1 pbc="F F F"
C       0.38823655      -0.77464090      -0.16301889        6 
C      -0.83347421      -0.11098071       0.12809597        6 
C       1.69989843      -0.15653822       0.23459376        6 
C      -0.93761056       1.38756851       0.07402262        6 
O       2.74473299      -0.95883547      -0.08151683        8 
O       1.84795929       0.91421866       0.77121294        8 
O      -0.05919314       1.89907537      -0.80855157        8 
O      -1.82851184       2.04608886       0.56151944        8 
C      -0.06468325       3.32736707      -0.94872949        6 
C       4.04368498      -0.46874272       0.28944613        6 
C       0.38064931      -2.13273484      -0.48484623        6 
C      -0.81601528      -2.84083298      -0.52685360        6 
C      -1.99904110      -2.20695872      -0.18296284        6 
C      -2.04160298      -0.84112341       0.13745371        6 
H      -1.04322152       3.67961558      -1.27923329        1 
H       4.23937246       0.49292798      -0.18688475        1 
H      -2.92647046      -2.76937182      -0.18094645        1 
H       0.18900648       3.79899625       0.00218190        1 
H       0.69553563       3.54578906      -1.69541634        1 
H       4.74677133      -1.22159463      -0.06055367        1 
H       4.11297318      -0.35256626       1.37231869        1 
H      -0.81744707      -3.89237470      -0.79058648        1 
H       1.31933528      -2.63648024      -0.66509861        1 
C      -3.39191325      -0.23401039       0.44054991        6 
H      -3.64652362       0.56325697      -0.26131632        1 
H      -3.41341958       0.21645534       1.43322367        1 
H      -4.16353454      -1.00410144       0.38421682        1 
