27
Lattice="0.0 0.0 0.0 0.0 0.0 0.0 0.0 0.0 0.0" Properties=species:S:1:pos:R:3:Z:I:1 pbc="F F F"
C       0.54321122      -0.75143671      -0.16939514        6 
C      -0.74897750      -0.27610924       0.13251669        6 
C       1.73529527       0.12347192       0.06872049        6 
C      -1.05302060       1.19114313       0.26622284        6 
O       2.86898614      -0.60597651       0.17771463        8 
O       1.72923562       1.32950139       0.14578082        8 
O      -0.78977907       1.83201885      -0.88394987        8 
O      -1.62389164       1.69298561       1.20497766        8 
C      -0.98863633       3.25600070      -0.87388990        6 
C       4.07813880       0.14156421       0.39496351        6 
C       0.72975614      -2.10615468      -0.46590526        6 
C      -0.35647275      -2.97085132      -0.49858416        6 
C      -1.62571194      -2.49950191      -0.18256433        6 
C      -1.84825285      -1.15550124       0.13442205        6 
H      -2.01413323       3.50149806      -0.59443823        1 
H       4.25364064       0.83253984      -0.43091399        1 
H      -2.46937185      -3.18132971      -0.19085087        1 
H      -0.29523271       3.71842295      -0.16973724        1 
H      -0.77567001       3.58421369      -1.88876199        1 
H       4.87007238      -0.60218828       0.44958209        1 
H       4.01502423       0.70497113       1.32709415        1 
H      -0.21163894      -4.01577442      -0.74806438        1 
H       1.72823786      -2.47322112      -0.65635642        1 
C      -3.25277122      -0.68899047       0.44061651        6 
H      -3.55008254       0.14333033      -0.20307996        1 
H      -3.33669210      -0.33719160       1.47058122        1 
H      -3.96412234      -1.50293006       0.29063862        1 
