27
Lattice="0.0 0.0 0.0 0.0 0.0 0.0 0.0 0.0 0.0" Properties=species:S:1:pos:R:3:Z:I:1 pbc="F F F"
C       0.70714671      -0.73336633      -0.00431676        6 
C      -0.64058668      -0.30896755      -0.01139786        6 
C       1.82710932       0.22544119      -0.28345834        6 
C      -0.90368305       1.14543023       0.24826551        6 
O       2.92759278      -0.07946484       0.43458725        8 
O       1.77829937       1.12048030      -1.08972114        8 
O      -2.06289903       1.57676725      -0.28871261        8 
O      -0.14803401       1.87083765       0.84841626        8 
C      -2.36337075       2.97085706      -0.09338058        6 
C       4.07805447       0.75098240       0.19356761        6 
C       1.02000770      -2.09070165       0.01413753        6 
C       0.00268926      -3.04004188       0.02084658        6 
C      -1.32113774      -2.62780264       0.00145534        6 
C      -1.67443219      -1.27039152       0.00167788        6 
H      -2.42671138       3.20315398       0.97071311        1 
H       4.39597417       0.66994483      -0.84733438        1 
H      -2.11192586      -3.37009637       0.00957443        1 
H      -1.59157614       3.59093302      -0.55106043        1 
H      -3.32326849       3.12940412      -0.58017403        1 
H       4.85009681       0.37615546       0.86189289        1 
H       3.84510064       1.79251776       0.41847288        1 
H       0.24386504      -4.09694817       0.03425002        1 
H       2.05799664      -2.39615025       0.00281857        1 
C      -3.14920500      -0.93520373       0.05138458        6 
H      -3.47028816      -0.41468495      -0.85198794        1 
H      -3.39217135      -0.28415485       0.89362367        1 
H      -3.73374557      -1.85147025       0.15039212        1 
