27
Lattice="0.0 0.0 0.0 0.0 0.0 0.0 0.0 0.0 0.0" Properties=species:S:1:pos:R:3:Z:I:1 pbc="F F F"
C      -0.18125583      -1.19385511       0.03053903        6 
C      -0.78019075       0.07197151       0.10540821        6 
C       1.29382029      -1.38203302      -0.12823265        6 
C       0.04194157       1.31608655       0.30318169        6 
O       2.00057662      -0.59255296       0.70062560        8 
O       1.79548415      -2.12847755      -0.93506875        8 
O       0.49408221       1.78812196      -0.87571475        8 
O       0.27674361       1.82310688       1.36954880        8 
C       1.32498338       2.96363870      -0.80738883        6 
C       3.43244560      -0.65388177       0.57019621        6 
C      -0.98125440      -2.33597270      -0.07762100        6 
C      -2.36407583      -2.22218460      -0.06148334        6 
C      -2.95413828      -0.96274758       0.01836204        6 
C      -2.18058749       0.19678394       0.10031672        6 
H       0.77671284       3.79276253      -0.35785721        1 
H       3.79090847      -1.65779444       0.80247468        1 
H      -4.03539907      -0.87425303       0.01463676        1 
H       2.21883820       2.76126711      -0.21522274        1 
H       1.58933985       3.19058140      -1.83761109        1 
H       3.81659780       0.06603926       1.28912914        1 
H       3.73415161      -0.39150904      -0.44506174        1 
H      -2.98380978      -3.10916802      -0.12617332        1 
H      -0.50420741      -3.30238366      -0.18265227        1 
C      -2.83770086       1.55365425       0.18413022        6 
H      -2.51226159       2.20207962      -0.63490762        1 
H      -2.58455767       2.05617484       1.12138981        1 
H      -3.92350050       1.46317485       0.12856996        1 
