27
Lattice="0.0 0.0 0.0 0.0 0.0 0.0 0.0 0.0 0.0" Properties=species:S:1:pos:R:3:Z:I:1 pbc="F F F"
C       0.20383771      -0.99042267       0.21483886        6 
C      -0.82350855      -0.05090494       0.06842007        6 
C       1.62398959      -0.54000409       0.36739318        6 
C      -0.54557728       1.40931732       0.29483737        6 
O       2.39147010      -1.03339783      -0.62583136        8 
O       2.05223040       0.12365682       1.27979052        8 
O      -0.03892025       1.98904309      -0.81166815        8 
O      -0.71509917       1.97996387       1.34070484        8 
C       0.34292541       3.37391186      -0.67463988        6 
C       3.79552864      -0.71867299      -0.55131817        6 
C      -0.07763228      -2.35492238       0.11279430        6 
C      -1.38653758      -2.77696794      -0.08574478        6 
C      -2.40655596      -1.83892424      -0.22526174        6 
C      -2.14700708      -0.46881376      -0.14874896        6 
H      -0.52300608       3.98340615      -0.41240715        1 
H       3.94417181       0.36167325      -0.57338785        1 
H      -3.42461241      -2.17325138      -0.39448421        1 
H       1.10472759       3.47655403       0.09927107        1 
H       0.73595458       3.66173774      -1.64694275        1 
H       4.24165694      -1.18594032      -1.42622212        1 
H       4.22818629      -1.12224176       0.36547915        1 
H      -1.61176397      -3.83558814      -0.14667231        1 
H       0.72761735      -3.07518544       0.18739293        1 
C      -3.26542239       0.53572218      -0.28468870        6 
H      -3.03877784       1.28177708      -1.05173710        1 
H      -3.42663517       1.07083107       0.65548866        1 
H      -4.19944411       0.04351792      -0.56031168        1 
