27
Lattice="0.0 0.0 0.0 0.0 0.0 0.0 0.0 0.0 0.0" Properties=species:S:1:pos:R:3:Z:I:1 pbc="F F F"
C      -0.07031142      -0.96273292       0.14160987        6 
C      -0.88454649       0.18205483       0.00599983        6 
C       1.42397918      -0.93792825       0.32755849        6 
C      -0.29552479       1.55520937       0.01377886        6 
O       2.05399895      -1.04790036      -0.85630763        8 
O       1.97998526      -0.94599511       1.39673100        8 
O       1.05289100       1.53110987       0.02585657        8 
O      -0.92108662       2.59146814       0.00938624        8 
C       1.71752511       2.80211785       0.09970980        6 
C       3.49128476      -1.08193041      -0.80108548        6 
C      -0.63327106      -2.23761285       0.14619480        6 
C      -2.00662140      -2.39313512       0.00830771        6 
C      -2.81455515      -1.27239940      -0.12930009        6 
C      -2.28787244       0.02330642      -0.12949376        6 
H       1.51297707       3.39109581      -0.79579379        1 
H       3.87375412      -0.16510222      -0.34946152        1 
H      -3.88606294      -1.39665199      -0.23878233        1 
H       1.38509297       3.35448394       0.97926037        1 
H       2.77734752       2.56860715       0.17236540        1 
H       3.81873334      -1.16559194      -1.83488697        1 
H       3.83294781      -1.93851180      -0.21793668        1 
H      -2.44495355      -3.38487722       0.00811717        1 
H       0.00712411      -3.10442454       0.25884168        1 
C      -3.25934201       1.17000954      -0.27772116        6 
H      -3.02206951       1.79548449      -1.14009627        1 
H      -3.23620234       1.82946140       0.59101887        1 
H      -4.27169370       0.77863117      -0.39675049        1 
