27
Lattice="0.0 0.0 0.0 0.0 0.0 0.0 0.0 0.0 0.0" Properties=species:S:1:pos:R:3:Z:I:1 pbc="F F F"
C      -0.21130018      -1.11644011       0.12739881        6 
C      -0.78127834       0.15461455      -0.07878035        6 
C       1.25473798      -1.40289456       0.04633996        6 
C       0.06149191       1.39473588      -0.13041926        6 
O       1.93600741      -0.43134538      -0.59188400        8 
O       1.76873770      -2.43024006       0.42463337        8 
O       0.75749412       1.54469410       1.01464469        8 
O       0.06039971       2.20152587      -1.02729289        8 
C       1.65058004       2.67036827       1.06294981        6 
C       3.34579039      -0.65300868      -0.76676711        6 
C      -1.03800375      -2.23169723       0.28819442        6 
C      -2.41818019      -2.09079475       0.23627729        6 
C      -2.97603850      -0.83666553       0.01040772        6 
C      -2.17882385       0.30204410      -0.14614356        6 
H       2.41423209       2.57689664       0.28838286        1 
H       3.84345553      -0.72173244       0.20196059        1 
H      -4.05453178      -0.72969226      -0.03735439        1 
H       1.10405247       3.60307041       0.91734892        1 
H       2.10223326       2.63937060       2.05196700        1 
H       3.70454404       0.20814127      -1.32599351        1 
H       3.51879726      -1.57371902      -1.32560015        1 
H      -3.05853232      -2.95684474       0.35877136        1 
H      -0.57818676      -3.20038839       0.43543390        1 
C      -2.83314412       1.64651989      -0.36177877        6 
H      -2.56692587       2.06126563      -1.33560168        1 
H      -2.51687916       2.37329363       0.39194739        1 
H      -3.91884197       1.55469343      -0.30470357        1 
