27
Lattice="0.0 0.0 0.0 0.0 0.0 0.0 0.0 0.0 0.0" Properties=species:S:1:pos:R:3:Z:I:1 pbc="F F F"
C      -0.22212399      -1.05135939      -0.09133813        6 
C      -0.86754238       0.19245432       0.00037109        6 
C       1.26576383      -1.17515581      -0.24955568        6 
C      -0.05837991       1.44359569       0.13758086        6 
O       1.90715360      -0.86499033       0.89499149        8 
O       1.81889216      -1.50559766      -1.26727095        8 
O       0.92203831       1.49453629      -0.78624978        8 
O      -0.22773709       2.29033166       0.98141875        8 
C       1.85313714       2.58511707      -0.67068448        6 
C       3.34544941      -0.91531699       0.84256608        6 
C      -0.96880894      -2.22885927      -0.13850254        6 
C      -2.35555408      -2.17113983      -0.07233179        6 
C      -2.99498090      -0.93868797       0.02089161        6 
C      -2.27365294       0.25701153       0.06899630        6 
H       1.33860406       3.54060794      -0.78049328        1 
H       3.68263076      -1.92261621       0.59392611        1 
H      -4.07827946      -0.89817072       0.05684899        1 
H       2.35157024       2.55387583       0.29974925        1 
H       2.56767939       2.43858734      -1.47739636        1 
H       3.68112515      -0.63331028       1.83788238        1 
H       3.72171530      -0.21623334       0.09386817        1 
H      -2.93903555      -3.08431161      -0.10378546        1 
H      -0.46104225      -3.18131722      -0.23239565        1 
C      -3.01481853       1.56754736       0.18045544        6 
H      -2.65921151       2.29923015      -0.54894222        1 
H      -2.87684345       2.01140587       1.16870012        1 
H      -4.08239267       1.41318558       0.01367216        1 
