27
Lattice="0.0 0.0 0.0 0.0 0.0 0.0 0.0 0.0 0.0" Properties=species:S:1:pos:R:3:Z:I:1 pbc="F F F"
C      -0.14203122      -0.99604641       0.24995160        6 
C      -0.81595717       0.21400881      -0.04057813        6 
C       1.34706358      -1.17911365       0.17920829        6 
C      -0.11486049       1.53002385       0.09641353        6 
O       1.82464228      -0.75169421      -1.00655673        8 
O       2.00642074      -1.78090672       0.99164643        8 
O       1.15545771       1.38868146       0.53081126        8 
O      -0.63145816       2.61818187      -0.02551032        8 
C       1.88422617       2.59958013       0.78450869        6 
C       3.23753448      -0.91701803      -1.20921925        6 
C      -0.85322070      -2.17831782       0.43558018        6 
C      -2.23604362      -2.18890029       0.28531077        6 
C      -2.89641815      -1.02121682      -0.06775086        6 
C      -2.22043041       0.19732473      -0.21874346        6 
H       1.98134713       3.18603663      -0.13056390        1 
H       3.79630656      -0.35021595      -0.46203137        1 
H      -3.97097427      -1.03902930      -0.21247308        1 
H       1.37759156       3.19772663       1.54321102        1 
H       2.86021766       2.27671337       1.14036201        1 
H       3.43346511      -0.53169626      -2.20736449        1 
H       3.51604002      -1.96984621      -1.14136321        1 
H      -2.79219917      -3.10948281       0.42292387        1 
H      -0.31177362      -3.08670973       0.66855377        1 
C      -3.04684444       1.41639015      -0.55287360        6 
H      -2.64319087       1.95696648      -1.40920675        1 
H      -3.06515610       2.12798090       0.27541708        1 
H      -4.07204553       1.11418070      -0.77572400        1 
