27
Lattice="0.0 0.0 0.0 0.0 0.0 0.0 0.0 0.0 0.0" Properties=species:S:1:pos:R:3:Z:I:1 pbc="F F F"
C       0.65423844      -0.84818567       0.08181185        6 
C      -0.65423091      -0.32180436       0.04364137        6 
C       1.86843514      -0.00221249       0.36442376        6 
C      -0.75705917       1.16957281      -0.00993816        6 
O       2.60454412       0.17940621      -0.74498711        8 
O       2.18440441       0.36674293       1.46684524        8 
O      -2.02178796       1.63527883      -0.00915292        8 
O       0.20105837       1.90915288      -0.04161187        8 
C      -2.16124911       3.06730575      -0.04941466        6 
C       3.78881526       0.98267866      -0.58240532        6 
C       0.87585487      -2.21993174       0.00154992        6 
C      -0.20304614      -3.08929427      -0.10456446        6 
C      -1.49529805      -2.58217272      -0.11989268        6 
C      -1.75701833      -1.20797185      -0.05529652        6 
H      -1.68759740       3.51943158       0.82300020        1 
H       3.51500795       1.98454570      -0.24887002        1 
H      -2.33341658      -3.26624327      -0.19304870        1 
H      -1.70448116       3.46938358      -0.95474174        1 
H      -3.23342487       3.25151173      -0.04457670        1 
H       4.25162126       1.01704678      -1.56610407        1 
H       4.46284177       0.52872107       0.14575318        1 
H      -0.03859668      -4.15909789      -0.16825677        1 
H       1.88904184      -2.60191025       0.03578195        1 
C      -3.20872897      -0.78620470      -0.10487834        6 
H      -3.42036913      -0.16403340      -0.97620882        1 
H      -3.49025403      -0.20240838       0.77252032        1 
H      -3.84469725      -1.67189796      -0.15061607        1 
