27
Lattice="0.0 0.0 0.0 0.0 0.0 0.0 0.0 0.0 0.0" Properties=species:S:1:pos:R:3:Z:I:1 pbc="F F F"
C       0.65018664      -0.90460851      -0.26786896        6 
C      -0.57872023      -0.26530455       0.03948751        6 
C       1.99946590      -0.24436341      -0.18052162        6 
C      -0.64493196       1.20902635      -0.24692183        6 
O       2.08722568       0.54861882       0.90070804        8 
O       2.95127752      -0.56209396      -0.85502315        8 
O      -1.89034120       1.72115225      -0.13946142        8 
O       0.29889740       1.89403197      -0.56525863        8 
C      -2.02078306       3.11826506      -0.45611487        6 
C       3.34111844       1.22501703       1.08220061        6 
C       0.71263264      -2.28669165      -0.41733622        6 
C      -0.42442821      -3.06280841      -0.21736368        6 
C      -1.60659914      -2.45340376       0.17270833        6 
C      -1.72383064      -1.05982647       0.28846796        6 
H      -1.40737788       3.72107739       0.21486852        1 
H       4.16040184       0.50790894       1.15160458        1 
H      -2.48111255      -3.06327630       0.37191257        1 
H      -1.71401003       3.30540574      -1.48605694        1 
H      -3.07626699       3.34552486      -0.32135393        1 
H       3.23650620       1.78280334       2.01013837        1 
H       3.52066323       1.90388640       0.24675642        1 
H      -0.37816582      -4.13976304      -0.33351061        1 
H       1.66521925      -2.74156037      -0.65711146        1 
C      -3.08694993      -0.52834702       0.67532518        6 
H      -3.59882695      -0.07832866      -0.17797903        1 
H      -3.02319459       0.23906372       1.44580363        1 
H      -3.70259329      -1.34877749       1.04941021        1 
