27
Lattice="0.0 0.0 0.0 0.0 0.0 0.0 0.0 0.0 0.0" Properties=species:S:1:pos:R:3:Z:I:1 pbc="F F F"
C      -0.16396947      -1.02863042       0.23574516        6 
C      -0.78738237       0.20445774      -0.07251210        6 
C       1.30610312      -1.28872739       0.08450639        6 
C      -0.03161762       1.49144243       0.04599059        6 
O       1.86370402      -0.50419278      -0.86009031        8 
O       1.89189221      -2.20687266       0.60946802        8 
O       1.01424023       1.36797322       0.89331798        8 
O      -0.37612861       2.55921224      -0.40663680        8 
C       1.80355163       2.54886491       1.10038021        6 
C       3.25419405      -0.74220295      -1.13281040        6 
C      -0.93089146      -2.17267012       0.44374419        6 
C      -2.31576201      -2.11596699       0.32472284        6 
C      -2.92491134      -0.92249902      -0.03394641        6 
C      -2.19053273       0.25716888      -0.22539513        6 
H       2.25175945       2.87712650       0.16064136        1 
H       3.85496771      -0.55035313      -0.24191651        1 
H      -4.00241818      -0.88633595      -0.15172739        1 
H       1.18990148       3.35495375       1.50499039        1 
H       2.57392855       2.25923114       1.81178685        1 
H       3.51506096      -0.04785198      -1.92845092        1 
H       3.41036415      -1.77305426      -1.45401895        1 
H      -2.91345859      -3.00587474       0.48703286        1 
H      -0.42490275      -3.10432006       0.66226254        1 
C      -2.95282340       1.51837722      -0.55615725        6 
H      -2.63089617       1.94025184      -1.50903874        1 
H      -2.79265317       2.29726877       0.19225887        1 
H      -4.02141588       1.30164683      -0.60854645        1 
