27
Lattice="0.0 0.0 0.0 0.0 0.0 0.0 0.0 0.0 0.0" Properties=species:S:1:pos:R:3:Z:I:1 pbc="F F F"
C      -0.12469771      -1.03205866       0.27319243        6 
C      -0.76164181       0.17906556      -0.10322896        6 
C       1.33061188      -1.33655983       0.02801399        6 
C      -0.05171801       1.49527935       0.00322670        6 
O       2.01105912      -0.32387601      -0.53905525        8 
O       1.80449618      -2.44467801       0.14779059        8 
O       0.84599132       1.47217902       1.01098868        8 
O      -0.35973014       2.51592538      -0.56919256        8 
C       1.58609690       2.68244887       1.22367617        6 
C       3.35398759      -0.62399461      -0.95561320        6 
C      -0.89375929      -2.16162701       0.55074589        6 
C      -2.27958045      -2.11567243       0.45161707        6 
C      -2.89452729      -0.95550742       0.00577622        6 
C      -2.16388428       0.20968443      -0.26919787        6 
H       2.14127566       2.95177828       0.32319337        1 
H       3.95047589      -0.96637180      -0.10915118        1 
H      -3.97191678      -0.93286249      -0.11630481        1 
H       0.91753545       3.50225542       1.49139211        1 
H       2.26880052       2.46283267       2.04180841        1 
H       3.74685043       0.30975927      -1.35193159        1 
H       3.34940609      -1.39650146      -1.72661060        1 
H      -2.87198286      -2.99388085       0.68207494        1 
H      -0.38295861      -3.08473503       0.79136430        1 
C      -2.93026792       1.43999369      -0.69567420        6 
H      -2.61667213       1.78207219      -1.68302231        1 
H      -2.76753163       2.27873600      -0.01590312        1 
H      -3.99887250       1.21872809      -0.72382973        1 
