27
Lattice="0.0 0.0 0.0 0.0 0.0 0.0 0.0 0.0 0.0" Properties=species:S:1:pos:R:3:Z:I:1 pbc="F F F"
C       0.04549245      -1.22061033      -0.12599963        6 
C      -0.67839286      -0.01144964      -0.03514269        6 
C       1.53744539      -1.33862377       0.00501704        6 
C      -0.04252886       1.30876657      -0.37386488        6 
O       2.16548084      -0.15614504       0.08866489        8 
O       2.11197845      -2.39656647       0.13656589        8 
O      -0.21675712       2.21881140       0.60651845        8 
O       0.55354098       1.53292763      -1.39607383        8 
C       0.34592633       3.51989525       0.35589972        6 
C       3.59008030      -0.20430901       0.27505107        6 
C      -0.63804481      -2.43957725      -0.08581279        6 
C      -2.02130320      -2.47331212       0.01858709        6 
C      -2.72985710      -1.28254554       0.12023279        6 
C      -2.08294976      -0.04267084       0.08541379        6 
H       1.42277277       3.44142240       0.20055572        1 
H       3.83543594      -0.70415776       1.21344157        1 
H      -3.81076568      -1.30666400       0.20934300        1 
H      -0.11111769       3.97070212      -0.52667902        1 
H       0.12699207       4.10715962       1.24488563        1 
H       3.91145528       0.83449532       0.29419467        1 
H       4.06250163      -0.73703337      -0.55120940        1 
H      -2.54411728      -3.42267169       0.03730883        1 
H      -0.05736276      -3.35226161      -0.11220205        1 
C      -2.92034862       1.21581412       0.13029300        6 
H      -2.69074303       1.88378332      -0.70465845        1 
H      -2.74729337       1.77819006       1.05007118        1 
H      -3.98112869       0.96686662       0.07309417        1 
