27
Lattice="0.0 0.0 0.0 0.0 0.0 0.0 0.0 0.0 0.0" Properties=species:S:1:pos:R:3:Z:I:1 pbc="F F F"
C       0.54623609      -0.85497772      -0.15673516        6 
C      -0.71901755      -0.25334950      -0.05992466        6 
C       1.77364256      -0.00403638      -0.17910738        6 
C      -0.91311157       1.21996496      -0.31015207        6 
O       2.82979393      -0.64470405       0.37023884        8 
O       1.84972945       1.10444847      -0.65354147        8 
O      -0.98291204       1.91145357       0.84280182        8 
O      -1.00997722       1.70890642      -1.40489072        8 
C      -1.12604212       3.33994079       0.70450294        6 
C       4.07869188       0.06895566       0.34171341        6 
C       0.65931723      -2.24821763      -0.08117071        6 
C      -0.47784654      -3.03405051       0.04747810        6 
C      -1.72881919      -2.43128166       0.14816015        6 
C      -1.87190784      -1.04299318       0.09341060        6 
H      -0.28141812       3.74595185       0.14675748        1 
H       4.37177388       0.28404349      -0.68707820        1 
H      -2.61489405      -3.04671937       0.26397591        1 
H      -2.05424364       3.58103528       0.18387416        1 
H      -1.14273686       3.72823786       1.72027562        1 
H       4.79936161      -0.59296397       0.81679437        1 
H       3.99459996       1.00584069       0.89419741        1 
H      -0.39098251      -4.11382396       0.08551436        1 
H       1.64035665      -2.70114985      -0.12120647        1 
C      -3.24256440      -0.41365696       0.17455897        6 
H      -3.48259431       0.12535027      -0.74669978        1 
H      -3.30360092       0.30104136       0.99949712        1 
H      -4.00980630      -1.17395338       0.32880280        1 
