27
Lattice="0.0 0.0 0.0 0.0 0.0 0.0 0.0 0.0 0.0" Properties=species:S:1:pos:R:3:Z:I:1 pbc="F F F"
C       0.28293623      -0.83506492      -0.09236454        6 
C      -0.87333570      -0.03899496       0.10297954        6 
C       1.64147548      -0.32678642       0.29079278        6 
C      -0.79862213       1.45820621       0.04146402        6 
O       2.62616011      -1.05863743      -0.27803808        8 
O       1.85607084       0.59638641       1.03812479        8 
O       0.22886147       1.86360842      -0.73055858        8 
O      -1.64134651       2.22015234       0.45755984        8 
C       0.41478173       3.28297753      -0.84000297        6 
C       3.96795953      -0.70172482       0.09548103        6 
C       0.15783916      -2.20003137      -0.35037435        6 
C      -1.10132501      -2.78938172      -0.40951838        6 
C      -2.22988973      -2.02105249      -0.17119867        6 
C      -2.14933915      -0.64210407       0.07642954        6 
H      -0.47126807       3.75561439      -1.26641031        1 
H       4.18137605       0.32994811      -0.18764032        1 
H      -3.20908036      -2.48677426      -0.19470107        1 
H       0.61811689       3.71208823       0.14253236        1 
H       1.27293001       3.41109699      -1.49610436        1 
H       4.61171942      -1.38949579      -0.44856622        1 
H       4.10702141      -0.81370059       1.17207802        1 
H      -1.19730459      -3.84965966      -0.61443961        1 
H       1.05048299      -2.79775397      -0.47108996        1 
C      -3.44315429       0.11443207       0.26868307        6 
H      -3.57180500       0.89574449      -0.48365048        1 
H      -3.47283615       0.61503088       1.23684336        1 
H      -4.28689666      -0.57472583       0.19912166        1 
