27
Lattice="0.0 0.0 0.0 0.0 0.0 0.0 0.0 0.0 0.0" Properties=species:S:1:pos:R:3:Z:I:1 pbc="F F F"
C       0.43877911      -0.97240403       0.26791988        6 
C      -0.67669619      -0.20731736      -0.09215952        6 
C       1.79483805      -0.33716092       0.39395882        6 
C      -0.51102684       1.27660495      -0.23888645        6 
O       2.48868054      -0.47636738      -0.74504357        8 
O       2.22396835       0.17815116       1.39765723        8 
O      -1.21999244       1.93659890       0.69497856        8 
O       0.15865610       1.82002871      -1.08402914        8 
C      -1.12862792       3.37470891       0.66030285        6 
C       3.80172212       0.11770289      -0.76714416        6 
C       0.31322261      -2.34635668       0.46823803        6 
C      -0.92768460      -2.95352894       0.30796236        6 
C      -2.03315871      -2.19328916      -0.06368180        6 
C      -1.93503036      -0.81294905      -0.25614755        6 
H      -0.09422819       3.68916698       0.80378708        1 
H       3.72477693       1.19657800      -0.62618923        1 
H      -2.99412125      -2.67652918      -0.20450632        1 
H      -1.49412077       3.75714680      -0.29398707        1 
H      -1.75271665       3.72212928       1.48024999        1 
H       4.20343255      -0.11198578      -1.75105838        1 
H       4.42787579      -0.30976380       0.01731072        1 
H      -1.03176791      -4.02169984       0.46110924        1 
H       1.18199721      -2.93349151       0.74099416        1 
C      -3.15678931      -0.01196614      -0.63835520        6 
H      -2.94014579       0.69444857      -1.44404128        1 
H      -3.52537378       0.56703119       0.21258270        1 
H      -3.95881177      -0.67010854      -0.97701046        1 
