27
Lattice="0.0 0.0 0.0 0.0 0.0 0.0 0.0 0.0 0.0" Properties=species:S:1:pos:R:3:Z:I:1 pbc="F F F"
C      -0.25116983      -1.09586396      -0.07044216        6 
C      -0.83666587       0.17558803       0.03918586        6 
C       1.22973604      -1.29530525      -0.15853201        6 
C       0.02755913       1.39427194       0.14409986        6 
O       1.87228782      -0.68160337       0.85586216        8 
O       1.78432850      -1.93120384      -1.02073969        8 
O       0.88200375       1.46934757      -0.89694392        8 
O      -0.01898865       2.20567065       1.03547666        8 
C       1.84725043       2.53589769      -0.84678921        6 
C       3.30884277      -0.76958415       0.83535748        6 
C      -1.05516783      -2.23312204      -0.16158220        6 
C      -2.43764215      -2.10796761      -0.10529585        6 
C      -3.01583934      -0.84786647       0.01933765        6 
C      -2.23622518       0.30989243       0.09576917        6 
H       1.34704924       3.50519655      -0.84253597        1 
H       3.62712762      -1.81075559       0.90426098        1 
H      -4.09610424      -0.75478735       0.05167382        1 
H       2.46088914       2.44410509       0.05098491        1 
H       2.45258164       2.41938135      -1.74279655        1 
H       3.64455911      -0.20731275       1.70361160        1 
H       3.70204875      -0.33523928      -0.08527450        1 
H      -3.06573000      -2.98954421      -0.16498418        1 
H      -0.58931930      -3.20431065      -0.27421559        1 
C      -2.90430908       1.65768148       0.22503555        6 
H      -2.52070944       2.37186739      -0.50818792        1 
H      -2.72475579       2.08783038       1.21282929        1 
H      -3.98130735       1.56523985       0.07582490        1 
