27
Lattice="0.0 0.0 0.0 0.0 0.0 0.0 0.0 0.0 0.0" Properties=species:S:1:pos:R:3:Z:I:1 pbc="F F F"
C       0.54464480      -0.95332248      -0.23739252        6 
C      -0.60926787      -0.21240599       0.08891852        6 
C       1.93775149      -0.39233767      -0.32491358        6 
C      -0.54579959       1.28895977       0.03504275        6 
O       2.33747904       0.11258830       0.84744394        8 
O       2.65771153      -0.52891879      -1.28706256        8 
O      -1.62011755       1.78723493      -0.61893792        8 
O       0.34234608       1.99039450       0.45224683        8 
C      -1.66062133       3.21792680      -0.76598840        6 
C       3.65887420       0.68041958       0.87621646        6 
C       0.46199368      -2.33426024      -0.42197912        6 
C      -0.74285398      -2.99452420      -0.21668745        6 
C      -1.86464024      -2.27422745       0.17535368        6 
C      -1.83236897      -0.88283103       0.30975229        6 
H      -1.68569508       3.70293285       0.21126004        1 
H       4.40501631      -0.06974198       0.60946543        1 
H      -2.79549106      -2.79641723       0.36984026        1 
H      -0.78724353       3.56811267      -1.31775644        1 
H      -2.57325655       3.42435332      -1.32082108        1 
H       3.80129596       1.02276253       1.89831080        1 
H       3.71913824       1.51831916       0.18047735        1 
H      -0.80318303      -4.06940433      -0.34442719        1 
H       1.35208215      -2.88147735      -0.70628218        1 
C      -3.10867181      -0.17723062       0.71147080        6 
H      -3.62050052       0.23838748      -0.15928089        1 
H      -2.92454307       0.64683975       1.40229160        1 
H      -3.78373388      -0.88295148       1.20003887        1 
