27
Lattice="0.0 0.0 0.0 0.0 0.0 0.0 0.0 0.0 0.0" Properties=species:S:1:pos:R:3:Z:I:1 pbc="F F F"
C       0.69955397      -0.76153839      -0.04817267        6 
C      -0.64240161      -0.34074112      -0.05310004        6 
C       1.79048393       0.25375314       0.03845765        6 
C      -1.00832786       1.08838676      -0.35481712        6 
O       3.01616224      -0.30941957      -0.02882365        8 
O       1.61942978       1.44462496       0.15555579        8 
O      -1.59205262       1.68540517       0.69935124        8 
O      -0.84010098       1.61090757      -1.42693738        8 
C      -1.97170636       3.06172519       0.50455150        6 
C       4.12935024       0.59685694       0.05742745        6 
C       0.99764335      -2.12602901       0.03454943        6 
C      -0.02650950      -3.06227158       0.09727772        6 
C      -1.35153270      -2.63973960       0.09587509        6 
C      -1.68277908      -1.28367320       0.01378262        6 
H      -1.09269865       3.66061673       0.26374558        1 
H       4.09795759       1.31764939      -0.76089212        1 
H      -2.14979949      -3.37297816       0.14607597        1 
H      -2.70045163       3.14592038      -0.30348043        1 
H      -2.40728322       3.37755457       1.44979158        1 
H       5.01612916      -0.02894585      -0.01574526        1 
H       4.11301330       1.13136371       1.00843300        1 
H       0.20656304      -4.11923248       0.15614587        1 
H       2.03156727      -2.44049806       0.05997865        1 
C      -3.13527494      -0.86707455      -0.02565980        6 
H      -3.34512073      -0.23076991      -0.89022465        1 
H      -3.40848344      -0.30230966       0.86895198        1 
H      -3.78393716      -1.74214808      -0.08981751        1 
