27
Lattice="0.0 0.0 0.0 0.0 0.0 0.0 0.0 0.0 0.0" Properties=species:S:1:pos:R:3:Z:I:1 pbc="F F F"
C      -0.04044608      -0.94934009       0.14891624        6 
C      -0.89641700       0.15781201      -0.00832262        6 
C       1.44705251      -0.83658562       0.35053319        6 
C      -0.35863968       1.54937175       0.05876619        6 
O       2.10302237      -1.04266902      -0.80480893        8 
O       1.98425476      -0.71276433       1.42328573        8 
O       0.94564992       1.60048528      -0.28351752        8 
O      -0.98914505       2.52969994       0.38071502        8 
C       1.59974930       2.87033980      -0.12162369        6 
C       3.53945347      -1.02683721      -0.72373478        6 
C      -0.55255184      -2.24555247       0.14701372        6 
C      -1.91653238      -2.45190124      -0.01972582        6 
C      -2.76429453      -1.36363384      -0.18783038        6 
C      -2.28637896      -0.04985437      -0.17633133        6 
H       1.11669871       3.62965845      -0.73771085        1 
H       3.88844449      -0.05299350      -0.37637317        1 
H      -3.82641016      -1.52978298      -0.33056660        1 
H       1.57119090       3.17908586       0.92434063        1 
H       2.62566288       2.70907820      -0.44476533        1 
H       3.88809248      -1.22003141      -1.73569757        1 
H       3.89352125      -1.79960821      -0.03948459        1 
H      -2.31713693      -3.45946619      -0.02395813        1 
H       0.11776429      -3.08745162       0.27301050        1 
C      -3.28030270       1.07192061      -0.35854091        6 
H      -2.96093541       1.78369285      -1.12197513        1 
H      -3.40328184       1.64406071       0.56306434        1 
H      -4.25006715       0.66309131      -0.64891873        1 
