27
Lattice="0.0 0.0 0.0 0.0 0.0 0.0 0.0 0.0 0.0" Properties=species:S:1:pos:R:3:Z:I:1 pbc="F F F"
C      -0.13033502      -1.15445648      -0.20291128        6 
C      -0.74698861       0.07948466       0.06863537        6 
C       1.32639402      -1.42276648       0.02313058        6 
C       0.02816286       1.35491479       0.25264278        6 
O       2.11250717      -0.35205656      -0.19032430        8 
O       1.74978084      -2.48214981       0.42457173        8 
O       0.49460182       1.80235643      -0.92533128        8 
O       0.10233172       1.97387898       1.28671221        8 
C       1.25867125       3.01978590      -0.87865482        6 
C       3.50617135      -0.52279184       0.12953917        6 
C      -0.92043053      -2.28058988      -0.46182935        6 
C      -2.30267291      -2.17478057      -0.49691439        6 
C      -2.90769432      -0.95283890      -0.21553452        6 
C      -2.15103830       0.18498943       0.07351695        6 
H       0.66792276       3.83051405      -0.44998396        1 
H       3.62660559      -0.74091657       1.19167260        1 
H      -3.98969441      -0.87398265      -0.22324095        1 
H       2.15824130       2.87414178      -0.27768745        1 
H       1.52043940       3.23660973      -1.91174895        1 
H       3.97825765       0.42324378      -0.12517670        1 
H       3.93345767      -1.33716767      -0.45654676        1 
H      -2.91036680      -3.04453587      -0.71887733        1 
H      -0.43198685      -3.23457258      -0.61343560        1 
C      -2.84226193       1.49527845       0.36852099        6 
H      -2.51285082       2.28363252      -0.31500418        1 
H      -2.62484273       1.83583023       1.38324803        1 
H      -3.92295293       1.39043217       0.26246177        1 
