27
Lattice="0.0 0.0 0.0 0.0 0.0 0.0 0.0 0.0 0.0" Properties=species:S:1:pos:R:3:Z:I:1 pbc="F F F"
C       0.65165511      -0.91357755      -0.22189471        6 
C      -0.60154389      -0.30840449       0.02631119        6 
C       1.95320999      -0.16032156      -0.26323357        6 
C      -0.66520771       1.17585768      -0.17174494        6 
O       2.21055276       0.41037926       0.92646152        8 
O       2.73891893      -0.21208536      -1.17767109        8 
O      -1.91741557       1.67549008      -0.13056770        8 
O       0.29799138       1.88107067      -0.37168334        8 
C      -2.03511669       3.09145720      -0.35875895        6 
C       3.40516628       1.20747264       0.99020322        6 
C       0.77048148      -2.29653625      -0.31851374        6 
C      -0.34560146      -3.10228668      -0.12434906        6 
C      -1.56816617      -2.51995941       0.17966943        6 
C      -1.73544002      -1.13043286       0.24485290        6 
H      -1.48879663       3.64756398       0.40424067        1 
H       4.28152227       0.61276453       0.72842749        1 
H      -2.43083879      -3.15322083       0.35506384        1 
H      -1.64201805       3.35218108      -1.34225356        1 
H      -3.10063252       3.30330270      -0.30102784        1 
H       3.46781014       1.55351292       2.01953856        1 
H       3.31903568       2.05328092       0.30583800        1 
H      -0.25885556      -4.18082123      -0.19377027        1 
H       1.74005662      -2.73101450      -0.52817465        1 
C      -3.12808814      -0.62580768       0.55118029        6 
H      -3.58160830      -0.14706102      -0.31900213        1 
H      -3.12704485       0.11381577       1.35206249        1 
H      -3.76158670      -1.46242885       0.85219426        1 
