27
Lattice="0.0 0.0 0.0 0.0 0.0 0.0 0.0 0.0 0.0" Properties=species:S:1:pos:R:3:Z:I:1 pbc="F F F"
C       0.71494889      -0.73439904      -0.02594087        6 
C      -0.63453892      -0.32647034      -0.02607921        6 
C       1.80451837       0.27442642       0.15808844        6 
C      -0.97217441       1.10585098      -0.33564904        6 
O       3.00663795      -0.21090996      -0.22016024        8 
O       1.65045234       1.38351095       0.60983470        8 
O      -1.86524367       1.61520183       0.53381463        8 
O      -0.49960604       1.72551266      -1.25488845        8 
C      -2.22906926       2.99253753       0.32043134        6 
C       4.12497795       0.67547178      -0.03988254        6 
C       1.03284527      -2.09339774       0.01795991        6 
C       0.02119057      -3.04678457       0.04936285        6 
C      -1.30727577      -2.64262960       0.05002323        6 
C      -1.66170300      -1.28840037       0.00090048        6 
H      -1.34246351       3.62564791       0.36849530        1 
H       3.99829153       1.57371700      -0.64605560        1 
H      -2.09498724      -3.38843680       0.07016348        1 
H      -2.70813288       3.11542114      -0.65247684        1 
H      -2.92167918       3.23606747       1.12295967        1 
H       4.99562587       0.11158142      -0.36738856        1 
H       4.22158695       0.96041022       1.00893052        1 
H       0.26905606      -4.10164993       0.08065158        1 
H       2.07157218      -2.39276137       0.04522291        1 
C      -3.12848340      -0.92342130      -0.05944499        6 
H      -3.34889014      -0.27421177      -0.91102668        1 
H      -3.44179629      -0.39014901       0.83988617        1 
H      -3.73746098      -1.82343853      -0.15864363        1 
