27
Lattice="0.0 0.0 0.0 0.0 0.0 0.0 0.0 0.0 0.0" Properties=species:S:1:pos:R:3:Z:I:1 pbc="F F F"
C       0.23034437      -1.02726265      -0.23927466        6 
C      -0.74266719      -0.08424159       0.10297228        6 
C       1.67678415      -0.63729422      -0.34599272        6 
C      -0.35303604       1.35169850       0.31461885        6 
O       2.32386798      -0.88197140       0.80576101        8 
O       2.20286068      -0.19783276      -1.33935299        8 
O      -0.48470164       2.05253715      -0.82403407        8 
O       0.00424020       1.82642779       1.36530060        8 
C      -0.12715231       3.44815006      -0.75875400        6 
C       3.72830818      -0.55517180       0.82736368        6 
C      -0.12934131      -2.35761749      -0.45954890        6 
C      -1.46214673      -2.73662909      -0.34893232        6 
C      -2.42884833      -1.79451744      -0.00672172        6 
C      -2.09197411      -0.45812645       0.21860475        6 
H      -0.76155656       3.96997572      -0.04069533        1 
H       4.26576392      -1.13890444       0.07855779        1 
H      -3.46616634      -2.09895380       0.08355785        1 
H       0.91782121       3.55583603      -0.46569898        1 
H      -0.28451975       3.83134359      -1.76397886        1 
H       4.06549844      -0.80848481       1.82956206        1 
H       3.87131952       0.50777071       0.62998301        1 
H      -1.74896592      -3.76731991      -0.52391665        1 
H       0.63039491      -3.08629137      -0.71632257        1 
C      -3.15155156       0.55600711       0.57468964        6 
H      -3.23016277       1.32852362      -0.19623403        1 
H      -2.92029721       1.05569607       1.51949054        1 
H      -4.12820612       0.07965834       0.67394606        1 
