27
Lattice="0.0 0.0 0.0 0.0 0.0 0.0 0.0 0.0 0.0" Properties=species:S:1:pos:R:3:Z:I:1 pbc="F F F"
C      -0.24497696      -1.11687968       0.07366174        6 
C      -0.81571477       0.16004200      -0.05889004        6 
C       1.23018441      -1.35636242       0.10407189        6 
C       0.05101644       1.37990754      -0.15188597        6 
O       1.88505241      -0.56372271      -0.76831799        8 
O       1.77371218      -2.18365706       0.79601774        8 
O       0.81919399       1.50826546       0.94923201        8 
O       0.05683433       2.15974991      -1.07158678        8 
C       1.77070944       2.58775478       0.92815759        6 
C       3.31696033      -0.69565181      -0.79164148        6 
C      -1.06530447      -2.24160124       0.18795532        6 
C      -2.44588986      -2.10023660       0.13791068        6 
C      -3.00780067      -0.83552147      -0.01195496        6 
C      -2.21327663       0.31050924      -0.11160679        6 
H       2.44664045       2.47441385       0.07890355        1 
H       3.73689355      -0.43150748       0.18053987        1 
H      -4.08678812      -0.72891462      -0.04655630        1 
H       1.25963165       3.54863590       0.85421215        1 
H       2.31380508       2.51289532       1.86748826        1 
H       3.65709385      -0.00580891      -1.56062774        1 
H       3.60060646      -1.71938851      -1.03898190        1 
H      -3.08491851      -2.97239451       0.21614781        1 
H      -0.60721633      -3.21521348       0.30853096        1 
C      -2.86173757       1.66608983      -0.26121572        6 
H      -2.61194372       2.11389491      -1.22509019        1 
H      -2.52327080       2.36089447       0.51274917        1 
H      -3.94690816       1.58160092      -0.18540335        1 
