27
Lattice="0.0 0.0 0.0 0.0 0.0 0.0 0.0 0.0 0.0" Properties=species:S:1:pos:R:3:Z:I:1 pbc="F F F"
C      -0.15160275      -0.99720194       0.21623158        6 
C      -0.83165637       0.21799799      -0.02673290        6 
C       1.34276557      -1.15378872       0.20005442        6 
C      -0.11857116       1.52864886       0.07748489        6 
O       1.84231212      -0.81688413      -1.00572159        8 
O       1.99389092      -1.64769110       1.08703654        8 
O       1.15105969       1.38095519       0.51178362        8 
O      -0.61627910       2.61907326      -0.09149876        8 
C       1.90643907       2.58574785       0.71081351        6 
C       3.26555163      -0.95339296      -1.15365999        6 
C      -0.85530426      -2.19017571       0.35845499        6 
C      -2.23867641      -2.20124624       0.21835627        6 
C      -2.90920250      -1.02106197      -0.06990101        6 
C      -2.23964156       0.20414437      -0.18331957        6 
H       2.02348757       3.12238593      -0.23213466        1 
H       3.78381553      -0.30254145      -0.44691537        1 
H      -3.98610366      -1.03694925      -0.19572041        1 
H       1.40836810       3.23269101       1.43410519        1 
H       2.87182397       2.25855389       1.09070324        1 
H       3.48037392      -0.65545461      -2.17747115        1 
H       3.57324295      -1.98586098      -0.98079989        1 
H      -2.78938583      -3.12954314       0.32164236        1 
H      -0.31087705      -3.10490276       0.55836746        1 
C      -3.07314816       1.43400763      -0.45437028        6 
H      -2.72419327       1.97076316      -1.33708225        1 
H      -3.02243364       2.14435014       0.37318248        1 
H      -4.11532636       1.14576124      -0.60461290        1 
