27
Lattice="0.0 0.0 0.0 0.0 0.0 0.0 0.0 0.0 0.0" Properties=species:S:1:pos:R:3:Z:I:1 pbc="F F F"
C       0.38271573      -1.08856359       0.13479536        6 
C      -0.65210001      -0.16931946      -0.10815510        6 
C       1.82920525      -0.71951239       0.30623600        6 
C      -0.38030105       1.30671712      -0.21180003        6 
O       2.33224112      -0.12362539      -0.78029718        8 
O       2.47573449      -0.99826326       1.28980237        8 
O      -1.04482233       1.96913700       0.76255991        8 
O       0.32609376       1.85335318      -1.01938076        8 
C      -0.90112522       3.40182301       0.76291559        6 
C       3.71395759       0.27322976      -0.71081149        6 
C       0.08486284      -2.44481435       0.29560856        6 
C      -1.21984884      -2.89655017       0.15140021        6 
C      -2.23711029      -1.99006683      -0.12776051        6 
C      -1.98012585      -0.62204688      -0.24376881        6 
H       0.14517885       3.67978957       0.89745530        1 
H       3.87054361       0.95807268       0.12377639        1 
H      -3.25486971      -2.34498480      -0.25031308        1 
H      -1.26542833       3.82215645      -0.17607714        1 
H      -1.50125518       3.75177100       1.59969644        1 
H       3.91605733       0.76888115      -1.65706464        1 
H       4.35534021      -0.60068166      -0.58491255        1 
H      -1.44448474      -3.95201190       0.25502760        1 
H       0.88586181      -3.13572913       0.52754357        1 
C      -3.12729880       0.32229467      -0.52165805        6 
H      -2.87041850       1.06350695      -1.28257094        1 
H      -3.41412074       0.86660248       0.38123699        1 
H      -3.99684072      -0.23311354      -0.87741691        1 
