27
Lattice="0.0 0.0 0.0 0.0 0.0 0.0 0.0 0.0 0.0" Properties=species:S:1:pos:R:3:Z:I:1 pbc="F F F"
C       0.37717837      -0.89576490       0.04840871        6 
C      -0.82590873      -0.16995831       0.07051802        6 
C       1.67885667      -0.18613943       0.21506754        6 
C      -0.83251750       1.32588572       0.22044926        6 
O       2.71191300      -0.90726133      -0.26921417        8 
O       1.81674741       0.89053443       0.74852518        8 
O      -0.34511813       1.92243476      -0.88204545        8 
O      -1.27519981       1.91262017       1.17551229        8 
C      -0.18906322       3.35179752      -0.80247544        6 
C       4.01810308      -0.33076313      -0.09188659        6 
C       0.34842293      -2.28711419      -0.09578412        6 
C      -0.86807490      -2.94852480      -0.20247265        6 
C      -2.05633078      -2.22442427      -0.17572235        6 
C      -2.06006428      -0.83348086      -0.03651014        6 
H      -1.14434830       3.83139726      -0.58496029        1 
H       4.08828147       0.62201635      -0.61865964        1 
H      -3.00379341      -2.74507513      -0.26745135        1 
H       0.53070588       3.59715685      -0.02019586        1 
H       0.18268480       3.65684639      -1.77806000        1 
H       4.71215965      -1.05411852      -0.51395082        1 
H       4.22326509      -0.17089375       0.96773123        1 
H      -0.89252656      -4.02702077      -0.30899292        1 
H       1.27911025      -2.83735758      -0.11591141        1 
C      -3.36881936      -0.08022582      -0.00972181        6 
H      -3.37529531       0.74014273      -0.73273262        1 
H      -3.54766901       0.35851056       0.97477318        1 
H      -4.20055934      -0.74540114      -0.24782988        1 
