27
Lattice="0.0 0.0 0.0 0.0 0.0 0.0 0.0 0.0 0.0" Properties=species:S:1:pos:R:3:Z:I:1 pbc="F F F"
C       0.44583039      -1.06045295       0.07541606        6 
C      -0.67404847      -0.20412037       0.04689083        6 
C       1.85859022      -0.56642825       0.22809253        6 
C      -0.40532725       1.25484925       0.23592179        6 
O       2.28139060       0.04515043      -0.89315081        8 
O       2.54616507      -0.77683386       1.19467066        8 
O      -1.39541543       2.04837851      -0.21798374        8 
O       0.60999959       1.69796735       0.72323539        8 
C      -1.18627917       3.46431580      -0.06540823        6 
C       3.59620730       0.62707097      -0.82731503        6 
C       0.29157181      -2.43992498      -0.03158087        6 
C      -0.97855834      -2.98408317      -0.17832797        6 
C      -2.08758195      -2.14788508      -0.19652374        6 
C      -1.97136364      -0.75791104      -0.07913899        6 
H      -1.05936090       3.72030317       0.98734556        1 
H       3.61948281       1.39790098      -0.05545104        1 
H      -3.07804852      -2.57927902      -0.29050093        1 
H      -0.30186390       3.77944136      -0.62066176        1 
H      -2.08099234       3.93190985      -0.47058692        1 
H       3.77058075       1.05980663      -1.80991918        1 
H       4.34303813      -0.13632024      -0.60441242        1 
H      -1.10554750      -4.05712116      -0.26782213        1 
H       1.16603167      -3.07816195       0.00292178        1 
C      -3.25209866       0.04618302      -0.06754372        6 
H      -3.33917667       0.67302103      -0.95665673        1 
H      -3.30781175       0.71319816       0.79435764        1 
H      -4.10924860      -0.62865491      -0.03420773        1 
