27
Lattice="0.0 0.0 0.0 0.0 0.0 0.0 0.0 0.0 0.0" Properties=species:S:1:pos:R:3:Z:I:1 pbc="F F F"
C       0.64745277      -0.79242134      -0.06740744        6 
C      -0.66911870      -0.33201025       0.08604056        6 
C       1.77002674       0.18886297      -0.08112252        6 
C      -0.95731318       1.11954840       0.36104576        6 
O       2.95264044      -0.38836463       0.21395884        8 
O       1.65263410       1.36230096      -0.35002331        8 
O      -1.43407908       1.73597476      -0.73207176        8 
O      -0.84499996       1.63662206       1.44445481        8 
C      -1.71961907       3.14031326      -0.58442632        6 
C       4.09981916       0.47971933       0.18635622        6 
C       0.89201297      -2.15992990      -0.23373048        6 
C      -0.16942234      -3.05528455      -0.26507217        6 
C      -1.47333697      -2.59180822      -0.11281160        6 
C      -1.74636635      -1.23319225       0.06804040        6 
H      -2.47918347       3.29705190       0.18318208        1 
H       4.23591071       0.89953727      -0.81161895        1 
H      -2.29898971      -3.29561270      -0.12963738        1 
H      -0.81013453       3.67680541      -0.31166687        1 
H      -2.08153744       3.46497478      -1.55726559        1 
H       4.94421609      -0.15016733       0.45694679        1 
H       3.97878672       1.29170403       0.90454408        1 
H       0.01660007      -4.11420192      -0.40318179        1 
H       1.91024730      -2.50675222      -0.34496225        1 
C      -3.16944705      -0.75832372       0.24505652        6 
H      -3.48288786      -0.13454750      -0.59643794        1 
H      -3.27830221      -0.16055034       1.15429487        1 
H      -3.85493237      -1.60450320       0.31429950        1 
