27
Lattice="0.0 0.0 0.0 0.0 0.0 0.0 0.0 0.0 0.0" Properties=species:S:1:pos:R:3:Z:I:1 pbc="F F F"
C       0.77148685       0.66058605      -0.17739477        6 
C      -0.59154961       0.31866868       0.00277733        6 
C       1.84298846      -0.37923759       0.00931019        6 
C      -1.07905353      -1.06927323      -0.32832118        6 
O       3.06383614       0.19236635       0.16270923        8 
O       1.69049096      -1.57490970       0.01412706        8 
O      -1.95841343      -1.52888485       0.58993405        8 
O      -0.70844297      -1.71588609      -1.27188499        8 
C      -2.46903391      -2.85498554       0.35667154        6 
C       4.15814781      -0.72572987       0.32726802        6 
C       1.14555097       2.00562549      -0.21846241        6 
C       0.18802265       3.00835023      -0.12472052        6 
C      -1.14415500       2.67165746       0.06872304        6 
C      -1.56124263       1.33607299       0.12098195        6 
H      -3.03167198      -2.88947472      -0.57809730        1 
H       4.01284286      -1.33648876       1.21974669        1 
H      -1.88947559       3.45490120       0.15568654        1 
H      -1.64882125      -3.57216885       0.30816835        1 
H      -3.11918344      -3.06761267       1.20262207        1 
H       5.04450612      -0.10318960       0.42851344        1 
H       4.24241802      -1.37988779      -0.54197126        1 
H       0.48487830       4.04928026      -0.17982055        1 
H       2.19287205       2.25648304      -0.30402950        1 
C      -3.04277102       1.05308853       0.25092079        6 
H      -3.27217474       0.54708702       1.18988988        1 
H      -3.40544205       0.40898307      -0.55427871        1 
H      -3.60760306       1.98598725       0.21204650        1 
