27
Lattice="0.0 0.0 0.0 0.0 0.0 0.0 0.0 0.0 0.0" Properties=species:S:1:pos:R:3:Z:I:1 pbc="F F F"
C       0.16653049      -0.90103602      -0.08080456        6 
C      -0.93019200      -0.00940009      -0.06824162        6 
C       1.59327661      -0.52315885      -0.37901621        6 
C      -0.74071179       1.46389424       0.14102296        6 
O       2.39784576      -0.84002888       0.65872376        8 
O       1.98759423      -0.06777985      -1.42025995        8 
O       0.45719108       1.90599576      -0.27132859        8 
O      -1.54987143       2.18351998       0.68342479        8 
C       0.74810827       3.29228915      -0.02960077        6 
C       3.80525508      -0.61322307       0.45176789        6 
C      -0.04983768      -2.27837711      -0.00016816        6 
C      -1.34182901      -2.78729301       0.03502812        6 
C      -2.42186687      -1.91702199      -0.01467554        6 
C      -2.24691700      -0.52955478      -0.04083557        6 
H       0.00774738       3.92763902      -0.51729054        1 
H       4.16974980      -1.21515843      -0.38229076        1 
H      -3.43114221      -2.31390456      -0.01385206        1 
H       0.75058748       3.50097552       1.04162727        1 
H       1.73453297       3.45401248      -0.45818125        1 
H       4.28555071      -0.91247053       1.38057562        1 
H       3.99385936       0.44054931       0.24177711        1 
H      -1.50429634      -3.85802818       0.08586246        1 
H       0.80101660      -2.94849955       0.00920826        1 
C      -3.48907885       0.33123659      -0.04256656        6 
H      -3.41438696       1.16541563      -0.74082948        1 
H      -3.66626287       0.76729358       0.94256957        1 
H      -4.35501479      -0.27551755      -0.31564974        1 
