27
Lattice="0.0 0.0 0.0 0.0 0.0 0.0 0.0 0.0 0.0" Properties=species:S:1:pos:R:3:Z:I:1 pbc="F F F"
C       0.64088294      -0.86108061      -0.15461651        6 
C      -0.64625947      -0.31648181       0.01405719        6 
C       1.85089575       0.00491670      -0.37809825        6 
C      -0.73208903       1.17333366       0.11327716        6 
O       2.64331642       0.02271365       0.70488206        8 
O       2.11804594       0.52736540      -1.43171005        8 
O      -1.92637366       1.66592365      -0.26669980        8 
O       0.18427714       1.87932684       0.46854373        8 
C      -2.06247578       3.09861308      -0.21442576        6 
C       3.82654031       0.83712455       0.59816531        6 
C       0.82933137      -2.23918178      -0.21062993        6 
C      -0.26465387      -3.08934011      -0.09570308        6 
C      -1.53616760      -2.55865338       0.08337459        6 
C      -1.76062069      -1.17855812       0.14260321        6 
H      -1.91058392       3.45882786       0.80402214        1 
H       4.45603316       0.49324576      -0.22401456        1 
H      -2.38307479      -3.22784222       0.18785229        1 
H      -1.33567085       3.57180845      -0.87577022        1 
H      -3.07737082       3.30264864      -0.54822874        1 
H       4.34036427       0.72522224       1.55017070        1 
H       3.54614771       1.87789879       0.43087673        1 
H      -0.12637823      -4.16382285      -0.13903547        1 
H       1.82632081      -2.64009276      -0.34725543        1 
C      -3.17935842      -0.70678920       0.36806433        6 
H      -3.57737224      -0.20888800      -0.51806964        1 
H      -3.24711532       0.00914925       1.18909503        1 
H      -3.82020238      -1.55832647       0.60395228        1 
