27
Lattice="0.0 0.0 0.0 0.0 0.0 0.0 0.0 0.0 0.0" Properties=species:S:1:pos:R:3:Z:I:1 pbc="F F F"
C       0.14024990      -1.19556168       0.17655752        6 
C      -0.65364967      -0.03243932       0.01970160        6 
C       1.63641184      -1.25183297       0.00215080        6 
C      -0.10783277       1.32313734       0.37724414        6 
O       2.22362525      -0.05269993      -0.10378245        8 
O       2.23872552      -2.28976437      -0.16585286        8 
O      -0.47576108       2.27149928      -0.51170983        8 
O       0.59620797       1.54637773       1.32853503        8 
C      -0.01394103       3.60472456      -0.23080929        6 
C       3.63728266      -0.05998239      -0.36372611        6 
C      -0.46938664      -2.45258713       0.18285507        6 
C      -1.84602706      -2.57792178       0.05934776        6 
C      -2.62020271      -1.44092699      -0.12233616        6 
C      -2.05265053      -0.16092340      -0.13171717        6 
H      -0.37655337       3.93930242       0.74257357        1 
H       4.16621434      -0.59121684       0.42851494        1 
H      -3.69461177      -1.53599965      -0.23715395        1 
H       1.07665821       3.63706126      -0.23581331        1 
H      -0.41974001       4.22550789      -1.02656904        1 
H       3.92925326       0.98744858      -0.38366329        1 
H       3.84734951      -0.54026163      -1.32090159        1 
H      -2.30918909      -3.55777630       0.08032959        1 
H       0.16484438      -3.32659294       0.24916632        1 
C      -2.98763880       1.02349032      -0.25225408        6 
H      -2.82236100       1.57019587      -1.18204664        1 
H      -2.85027522       1.73427118       0.56607528        1 
H      -4.02429450       0.68374284      -0.22949447        1 
