27
Lattice="0.0 0.0 0.0 0.0 0.0 0.0 0.0 0.0 0.0" Properties=species:S:1:pos:R:3:Z:I:1 pbc="F F F"
C      -0.00786542      -0.99610329       0.17846772        6 
C      -0.87977840       0.09072954       0.01182298        6 
C       1.47956471      -0.83984818       0.34606357        6 
C      -0.34049059       1.46688396      -0.24100350        6 
O       2.11256602      -1.04891494      -0.82690685        8 
O       2.04154386      -0.58935331       1.38030748        8 
O       0.49956716       1.86076464       0.72934071        8 
O      -0.59894026       2.13078657      -1.21736006        8 
C       1.15982639       3.12467693       0.53175296        6 
C       3.55182365      -0.97587112      -0.79152953        6 
C      -0.51486721      -2.29422756       0.26058506        6 
C      -1.88590372      -2.51004649       0.19766184        6 
C      -2.75071757      -1.43096533       0.04262143        6 
C      -2.27012058      -0.12516653      -0.07506161        6 
H       1.72663070       3.11388660      -0.40054623        1 
H       3.87481195       0.01341466      -0.46427961        1 
H      -3.82092037      -1.60216819      -0.00022159        1 
H       0.42974159       3.93471268       0.49832922        1 
H       1.82280494       3.23650705       1.38619469        1 
H       3.87486997      -1.16803968      -1.81197227        1 
H       3.95369345      -1.72848786      -0.11135743        1 
H      -2.28048897      -3.51711487       0.27137737        1 
H       0.16550034      -3.12885418       0.38214121        1 
C      -3.24090972       1.01155019      -0.28866791        6 
H      -3.15658468       1.40984761      -1.30228281        1 
H      -3.05147853       1.84149389       0.39679278        1 
H      -4.26590840       0.67120036      -0.13251432        1 
