27
Lattice="0.0 0.0 0.0 0.0 0.0 0.0 0.0 0.0 0.0" Properties=species:S:1:pos:R:3:Z:I:1 pbc="F F F"
C      -0.07852414      -0.97504908      -0.20378240        6 
C      -0.84649334       0.18134118       0.05543426        6 
C       1.42429319      -1.02015492      -0.25299078        6 
C      -0.24499212       1.54625416      -0.06168140        6 
O       1.94444606      -0.87823620       0.97997133        8 
O       2.07083743      -1.30626093      -1.23055116        8 
O       1.10209683       1.51874742      -0.11654268        8 
O      -0.87203062       2.57499206      -0.17933991        8 
C       1.75630093       2.77428883      -0.36423208        6 
C       3.37785445      -0.94440889       1.06460072        6 
C      -0.69287824      -2.21891600      -0.33691270        6 
C      -2.06697351      -2.33824474      -0.16749826        6 
C      -2.82097959      -1.21492142       0.14426028        6 
C      -2.24546608       0.05656721       0.24418685        6 
H       1.40111590       3.21024697      -1.29878494        1 
H       3.74041081      -1.90903223       0.70581088        1 
H      -3.88955547      -1.31481111       0.30005313        1 
H       1.56545841       3.46991851       0.45409905        1 
H       2.81587677       2.53781150      -0.42969587        1 
H       3.61227815      -0.81365991       2.11864856        1 
H       3.82817188      -0.14829585       0.46896118        1 
H      -2.54516409      -3.30647624      -0.26467844        1 
H      -0.08695145      -3.08990304      -0.55544062        1 
C      -3.16253306       1.21633825       0.55273052        6 
H      -3.30482057       1.85438691      -0.32209077        1 
H      -2.76157447       1.85849641       1.33736573        1 
H      -4.13619155       0.83803203       0.87053301        1 
