27
Lattice="0.0 0.0 0.0 0.0 0.0 0.0 0.0 0.0 0.0" Properties=species:S:1:pos:R:3:Z:I:1 pbc="F F F"
C      -0.10804345      -1.03418124       0.13511318        6 
C      -0.84764710       0.15001988       0.00866990        6 
C       1.38147413      -1.04982047       0.33809309        6 
C      -0.20763079       1.47494713       0.30389349        6 
O       2.03236768      -0.90719147      -0.82811263        8 
O       1.92577336      -1.25620475       1.39548362        8 
O       0.80030328       1.75594625      -0.54186478        8 
O      -0.52847656       2.18822635       1.22345587        8 
C       1.54247679       2.95907250      -0.26355008        6 
C       3.46979620      -0.93384373      -0.75659303        6 
C      -0.74677614      -2.27256238       0.04953002        6 
C      -2.11498100      -2.32992580      -0.18535660        6 
C      -2.84653455      -1.15371483      -0.32244386        6 
C      -2.23894798       0.09769251      -0.20388143        6 
H       0.89204657       3.83253540      -0.32614142        1 
H       3.83267309      -0.13243837      -0.11094322        1 
H      -3.91368016      -1.20462177      -0.50972465        1 
H       1.98265739       2.90952901       0.73352267        1 
H       2.31655975       3.00161532      -1.02636722        1 
H       3.81135622      -0.78795045      -1.77875609        1 
H       3.81624806      -1.89264420      -0.36758466        1 
H      -2.61188097      -3.29032783      -0.26321096        1 
H      -0.16918254      -3.18253394       0.16151355        1 
C      -3.07257700       1.35289451      -0.29875848        6 
H      -2.63647732       2.07672432      -0.99247242        1 
H      -3.14677489       1.84353626       0.67446345        1 
H      -4.08024058       1.11806780      -0.64621108        1 
