27
Lattice="0.0 0.0 0.0 0.0 0.0 0.0 0.0 0.0 0.0" Properties=species:S:1:pos:R:3:Z:I:1 pbc="F F F"
C       0.32548812      -0.92243360       0.13630904        6 
C      -0.83340217      -0.13551992       0.05682333        6 
C       1.66251441      -0.27036324       0.25864562        6 
C      -0.76349095       1.35545164       0.24031730        6 
O       2.61321895      -0.96283262      -0.40349721        8 
O       1.89385707       0.72415061       0.90548618        8 
O      -0.27038333       1.95811221      -0.85706328        8 
O      -1.10738547       1.93208645       1.23989359        8 
C      -0.02666179       3.37359022      -0.73699958        6 
C       3.95518955      -0.45697901      -0.28590508        6 
C       0.23037325      -2.31441216       0.03781801        6 
C      -1.01349471      -2.91552317      -0.10462820        6 
C      -2.16041269      -2.12951380      -0.17966284        6 
C      -2.09425587      -0.73658283      -0.09471643        6 
H      -0.95219055       3.90436858      -0.50974783        1 
H       4.01287965       0.56215550      -0.67060169        1 
H      -3.12835672      -2.60342357      -0.30477855        1 
H       0.70194560       3.55415247       0.05445121        1 
H       0.36667870       3.68162062      -1.70313018        1 
H       4.56916408      -1.12779568      -0.88271281        1 
H       4.27556859      -0.46604002       0.75716673        1 
H      -1.09113630      -3.99493459      -0.16689854        1 
H       1.13079246      -2.91270428       0.07677006        1 
C      -3.35374899       0.09361464      -0.16010057        6 
H      -3.26850617       0.89405741      -0.90041217        1 
H      -3.56025662       0.56505482       0.80430338        1 
H      -4.21168246      -0.52438983      -0.43016660        1 
