27
Lattice="0.0 0.0 0.0 0.0 0.0 0.0 0.0 0.0 0.0" Properties=species:S:1:pos:R:3:Z:I:1 pbc="F F F"
C       0.68859500      -0.75393554       0.00642170        6 
C      -0.65116672      -0.30627807       0.07001954        6 
C       1.86021598       0.12573660       0.35225614        6 
C      -0.85489757       1.17350735      -0.06118382        6 
O       2.76582354       0.14436452      -0.64441872        8 
O       2.00776656       0.66741551       1.41715332        8 
O      -2.15206592       1.54433034      -0.06990728        8 
O       0.04317647       1.97862830      -0.14657739        8 
C      -2.39943020       2.95639725      -0.19378934        6 
C       3.95179964       0.92269916      -0.39468830        6 
C       0.98080295      -2.10728961      -0.13964027        6 
C      -0.04966922      -3.03943996      -0.19263519        6 
C      -1.36478188      -2.61307938      -0.08295232        6 
C      -1.70141245      -1.25685800       0.02995798        6 
H      -1.95922127       3.49461154       0.64674449        1 
H       3.68502344       1.96402252      -0.20971676        1 
H      -2.16478454      -3.34487506      -0.10406846        1 
H      -1.97744122       3.33809631      -1.12453078        1 
H      -3.48258887       3.05871958      -0.19219763        1 
H       4.55152411       0.83262032      -1.29766384        1 
H       4.49186634       0.52923425       0.46804913        1 
H       0.17307093      -4.09473353      -0.30361508        1 
H       2.01441298      -2.42689355      -0.18689717        1 
C      -3.17722628      -0.92941696       0.09324195        6 
H      -3.50736834      -0.38574302      -0.79387768        1 
H      -3.41926897      -0.30328024       0.95227062        1 
H      -3.75297837      -1.85406811       0.16279750        1 
