27
Lattice="0.0 0.0 0.0 0.0 0.0 0.0 0.0 0.0 0.0" Properties=species:S:1:pos:R:3:Z:I:1 pbc="F F F"
C      -0.09691585      -0.98352716       0.28058451        6 
C      -0.80193603       0.19406074      -0.07006088        6 
C       1.39313251      -1.15819553       0.19002851        6 
C      -0.16857648       1.54380706       0.09719413        6 
O       1.85164213      -0.74186327      -1.00587399        8 
O       2.06184019      -1.77539608       0.98446457        8 
O       1.16024540       1.48174186       0.31561403        8 
O      -0.78010019       2.58587154       0.17904947        8 
C       1.80937494       2.72078776       0.64284900        6 
C       3.25788365      -0.92145309      -1.23570414        6 
C      -0.78239366      -2.17426375       0.51153675        6 
C      -2.16075483      -2.23282505       0.33431856        6 
C      -2.84369645      -1.10636342      -0.09993318        6 
C      -2.19896120       0.12404338      -0.28464859        6 
H       1.71322110       3.43147856      -0.17916854        1 
H       3.83692362      -0.35751638      -0.50183728        1 
H      -3.91171129      -1.16468167      -0.27982847        1 
H       1.37444450       3.15381045       1.54494998        1 
H       2.85314197       2.46216037       0.80738671        1 
H       3.43778949      -0.54078916      -2.23866145        1 
H       3.52831124      -1.97663786      -1.16994640        1 
H      -2.69338301      -3.16135425       0.50700867        1 
H      -0.21980129      -3.05586178       0.79176870        1 
C      -3.05185228       1.30045667      -0.69826528        6 
H      -2.57505941       1.90244786      -1.47139245        1 
H      -3.23792438       1.97023391       0.14410592        1 
H      -4.01155477       0.93970704      -1.07438273        1 
