27
Lattice="0.0 0.0 0.0 0.0 0.0 0.0 0.0 0.0 0.0" Properties=species:S:1:pos:R:3:Z:I:1 pbc="F F F"
C       0.62973693      -0.91773915       0.13911228        6 
C      -0.64044880      -0.31554438       0.01703222        6 
C       1.90650579      -0.13628106       0.30821768        6 
C      -0.67052301       1.17713086       0.10278291        6 
O       2.38178592       0.26926502      -0.88173165        8 
O       2.48375634      -0.00846949       1.35835163        8 
O      -1.90525142       1.71002184       0.01411527        8 
O       0.31610718       1.86469709       0.24634125        8 
C      -1.97826705       3.14399946       0.11197336        6 
C       3.56752945       1.08343700      -0.83319888        6 
C       0.76947214      -2.30252464       0.12493851        6 
C      -0.35179349      -3.10841457      -0.02654663        6 
C      -1.60513161      -2.52508305      -0.15885053        6 
C      -1.78705130      -1.13742101      -0.13547423        6 
H      -1.57398698       3.48113234       1.06727324        1 
H       3.35787198       2.00543758      -0.28853365        1 
H      -2.47653945      -3.15943682      -0.27743969        1 
H      -1.41804221       3.61015512      -0.69962649        1 
H      -3.03686661       3.38290234       0.03557232        1 
H       3.81434763       1.29761129      -1.87070474        1 
H       4.38290990       0.54778418      -0.34483642        1 
H      -0.25042770      -4.18776447      -0.04271453        1 
H       1.75417934      -2.74097358       0.23226495        1 
C      -3.20530990      -0.63167532      -0.27620550        6 
H      -3.31199932       0.04341394      -1.12620078        1 
H      -3.52502335      -0.07690581       0.60748523        1 
H      -3.88248763      -1.47599429      -0.41690856        1 
