27
Lattice="0.0 0.0 0.0 0.0 0.0 0.0 0.0 0.0 0.0" Properties=species:S:1:pos:R:3:Z:I:1 pbc="F F F"
C       0.54497849      -0.99355625      -0.24713955        6 
C      -0.60542893      -0.20598914       0.01921394        6 
C       1.95973487      -0.49121444      -0.14976939        6 
C      -0.49694660       1.25579233      -0.31182882        6 
O       2.10097133       0.40666676       0.84063112        8 
O       2.89375027      -0.99263858      -0.73150909        8 
O      -1.60724207       1.96356357      -0.01383100        8 
O       0.48104402       1.77504246      -0.79690395        8 
C      -1.56537342       3.36247157      -0.34710320        6 
C       3.42537004       0.93097257       1.02557924        6 
C       0.44979700      -2.37798623      -0.34661009        6 
C      -0.77340085      -3.01040849      -0.14912520        6 
C      -1.88552732      -2.25453973       0.18501922        6 
C      -1.84271879      -0.85293997       0.25437265        6 
H      -0.76806572       3.86218093       0.20480571        1 
H       4.13436637       0.12578126       1.22369237        1 
H      -2.83040066      -2.75250412       0.37329933        1 
H      -1.39700315       3.49517250      -1.41670829        1 
H      -2.53805995       3.75513456      -0.05832726        1 
H       3.35400938       1.60098189       1.87943027        1 
H       3.73732854       1.47904793       0.13483621        1 
H      -0.85037135      -4.08903434      -0.22695414        1 
H       1.34912700      -2.94672859      -0.54526510        1 
C      -3.14863440      -0.15380312       0.56417864        6 
H      -3.51946000       0.40756242      -0.29586675        1 
H      -3.04383629       0.55821565       1.38240769        1 
H      -3.90189949      -0.89444920       0.83846673        1 
