27
Lattice="0.0 0.0 0.0 0.0 0.0 0.0 0.0 0.0 0.0" Properties=species:S:1:pos:R:3:Z:I:1 pbc="F F F"
C       0.39114215      -0.97389259      -0.26609790        6 
C      -0.70290939      -0.18635261       0.10437222        6 
C       1.76065953      -0.36624159      -0.36661459        6 
C      -0.50962897       1.28970074       0.30522084        6 
O       2.48537110      -0.64084595       0.72917308        8 
O       2.17490168       0.24735498      -1.32026092        8 
O      -0.97447473       1.97942890      -0.74987239        8 
O      -0.02937563       1.79795624       1.28944476        8 
C      -0.83683675       3.41355940      -0.68331834        6 
C       3.82475508      -0.10610847       0.75508852        6 
C       0.22625080      -2.34011811      -0.49402291        6 
C      -1.03558339      -2.91063757      -0.36669412        6 
C      -2.12253833      -2.12431523       0.00717938        6 
C      -1.98079048      -0.75393232       0.23825032        6 
H      -1.39511869       3.81048579       0.16604079        1 
H       4.41267302      -0.51530813      -0.06792749        1 
H      -3.10171972      -2.57787662       0.11758529        1 
H       0.21449643       3.68645620      -0.58572463        1 
H      -1.24393259       3.78433541      -1.62085118        1 
H       4.23622419      -0.41170419       1.71387694        1 
H       3.79677456       0.98126899       0.67642405        1 
H      -1.17092071      -3.97080729      -0.54826967        1 
H       1.08005021      -2.94888159      -0.76669963        1 
C      -3.17336753       0.08997825       0.61755994        6 
H      -3.46134065       0.75016559      -0.20593835        1 
H      -2.95694852       0.72154701       1.48365764        1 
H      -4.03147711      -0.53714099       0.86424201        1 
