27
Lattice="0.0 0.0 0.0 0.0 0.0 0.0 0.0 0.0 0.0" Properties=species:S:1:pos:R:3:Z:I:1 pbc="F F F"
C       0.28402952      -0.95563068       0.20465218        6 
C      -0.81714202      -0.10090621       0.06402300        6 
C       1.66248318      -0.38776888       0.31974118        6 
C      -0.66262533       1.37949499       0.28285531        6 
O       2.50729167      -0.99265872      -0.54183559        8 
O       2.00731334       0.45697528       1.11068154        8 
O      -0.22479520       1.99624341      -0.83203627        8 
O      -0.87309132       1.93587664       1.32878407        8 
C       0.05349801       3.40552088      -0.69864414        6 
C       3.88339530      -0.57479351      -0.46788109        6 
C       0.10874317      -2.33940186       0.11227615        6 
C      -1.16416314      -2.86533409      -0.06830830        6 
C      -2.25643559      -2.01145437      -0.20172633        6 
C      -2.10559816      -0.62467080      -0.13436256        6 
H      -0.85079400       3.94762594      -0.41854480        1 
H       3.96860157       0.49111268      -0.68337554        1 
H      -3.24673535      -2.42613092      -0.35778818        1 
H       0.82003433       3.56223307       0.06124703        1 
H       0.40567522       3.72383903      -1.67714001        1 
H       4.40336665      -1.16159364      -1.22166710        1 
H       4.28807283      -0.77442194       0.52551530        1 
H      -1.30571397      -3.93878785      -0.12025383        1 
H       0.97012655      -2.99124856       0.18052201        1 
C      -3.30240626       0.28715763      -0.25956556        6 
H      -3.14292294       1.04992691      -1.02691170        1 
H      -3.49714220       0.80650982       0.68303834        1 
H      -4.19637346      -0.27812368      -0.52774212        1 
