27
Lattice="0.0 0.0 0.0 0.0 0.0 0.0 0.0 0.0 0.0" Properties=species:S:1:pos:R:3:Z:I:1 pbc="F F F"
C       0.59972681      -0.91674071       0.22983706        6 
C      -0.62847048      -0.27966487      -0.03363996        6 
C       1.89908543      -0.16922489       0.37284150        6 
C      -0.62883702       1.21638960       0.00521978        6 
O       2.44952307       0.05802755      -0.82898752        8 
O       2.43299806       0.06832985       1.42829839        8 
O      -1.82603361       1.73203086       0.34761868        8 
O       0.34033007       1.90917167      -0.20632584        8 
C      -1.89197889       3.16738509       0.43637600        6 
C       3.67152673       0.81869997      -0.82473762        6 
C       0.67208024      -2.30316943       0.33861825        6 
C      -0.47139377      -3.07069235       0.15257829        6 
C      -1.67737326      -2.45088350      -0.15148783        6 
C      -1.79165852      -1.05935984      -0.23834063        6 
H      -1.20147164       3.53220020       1.19795302        1 
H       3.48453899       1.81079807      -0.41140411        1 
H      -2.56076016      -3.05670253      -0.32184346        1 
H      -1.64106638       3.62100330      -0.52345133        1 
H      -2.92053391       3.39053651       0.71106289        1 
H       3.97130708       0.88825188      -1.86790788        1 
H       4.43784316       0.31364167      -0.23489023        1 
H      -0.42043877      -4.15094167       0.23044977        1 
H       1.62253632      -2.77443253       0.55810262        1 
C      -3.15202996      -0.48970034      -0.57404283        6 
H      -3.09576087       0.28386439      -1.34109914        1 
H      -3.61925483      -0.03515612       0.30196109        1 
H      -3.80408650      -1.28627213      -0.93738617        1 
