27
Lattice="0.0 0.0 0.0 0.0 0.0 0.0 0.0 0.0 0.0" Properties=species:S:1:pos:R:3:Z:I:1 pbc="F F F"
C      -0.09480245      -0.97677415       0.16649668        6 
C      -0.87018787       0.19000288      -0.00787787        6 
C       1.40485512      -1.00413771       0.29595188        6 
C      -0.24552050       1.54711361       0.02847046        6 
O       1.98778867      -0.99716702      -0.91726847        8 
O       1.99964108      -1.14589645       1.33457414        8 
O       1.09719839       1.48994188       0.14308756        8 
O      -0.84342323       2.59910485      -0.00588888        8 
C       1.78556972       2.74516830       0.25970222        6 
C       3.42508977      -1.05154695      -0.92180853        6 
C      -0.70036846      -2.23087117       0.21798890        6 
C      -2.07730319      -2.34550199       0.07505415        6 
C      -2.84551440      -1.20484848      -0.11474265        6 
C      -2.27684292       0.07277085      -0.15111194        6 
H       1.65506598       3.33603194      -0.64825586        1 
H       3.83663099      -0.18202354      -0.40627547        1 
H      -3.91936557      -1.29835162      -0.23163732        1 
H       1.40771115       3.30779588       1.11407046        1 
H       2.83205721       2.48633165       0.40419759        1 
H       3.71195780      -1.04618411      -1.97095868        1 
H       3.77707903      -1.95970534      -0.43021338        1 
H      -2.54888669      -3.32125208       0.10902707        1 
H      -0.08896340      -3.11315143       0.36577943        1 
C      -3.21075410       1.24468411      -0.33909014        6 
H      -2.93690353       1.84901569      -1.20539394        1 
H      -3.18710476       1.91746821       0.51963851        1 
H      -4.23147309       0.88125188      -0.47340947        1 
