30
Lattice="0.0 0.0 0.0 0.0 0.0 0.0 0.0 0.0 0.0" Properties=species:S:1:pos:R:3:Z:I:1 pbc="F F F"
C      -0.52006861      -0.69223478       0.08622748        6 
C      -0.59632820       0.70717277      -0.04073329        6 
C       0.80740414      -1.38730696       0.13935030        6 
C       0.65429615       1.52728196      -0.06774301        6 
O       1.55367505      -1.08670079      -0.94533862        8 
O       1.16001807      -2.15139682       1.00334087        8 
O       1.50962665       1.13972624       0.90311874        8 
O       0.88018793       2.43631630      -0.82932164        8 
C       2.78472368       1.80304031       0.92787237        6 
C       2.86771396      -1.67098854      -0.98818258        6 
C      -1.68235003      -1.48021091       0.13534921        6 
C      -2.91064432      -0.82335145       0.04902739        6 
C      -2.98847684       0.55770046      -0.07651826        6 
C      -1.84326677       1.35418153      -0.12812380        6 
H       3.31224572       1.64689490      -0.01497813        1 
H       3.45683467      -1.34340922      -0.12978262        1 
H      -3.96235190       1.03178398      -0.13344374        1 
H       2.65527426       2.87376183       1.09164474        1 
H       3.32844295       1.35077620       1.75419983        1 
H       3.31028719      -1.31822072      -1.91695387        1 
H       2.80255342      -2.76000768      -0.98220434        1 
H      -3.82367447      -1.40887044       0.07863000        1 
C      -1.98085697       2.85143533      -0.25914689        6 
C      -1.64242550      -2.98604073       0.25899524        6 
H      -1.02265265      -3.44060130      -0.51915305        1 
H      -2.64888430      -3.39799970       0.16906024        1 
H      -1.22371528      -3.29357293       1.21913149        1 
H      -1.62668492       3.19604586      -1.23263336        1 
H      -1.39358525       3.38086055       0.49492618        1 
H      -3.02580406       3.14582548      -0.14431890        1 
