30
Lattice="0.0 0.0 0.0 0.0 0.0 0.0 0.0 0.0 0.0" Properties=species:S:1:pos:R:3:Z:I:1 pbc="F F F"
C       0.59536330       0.40382671       0.12649256        6 
C      -0.78526224       0.40086390      -0.16988543        6 
C       1.37604399      -0.88021943      -0.00920366        6 
C      -1.60947232      -0.85918641      -0.20961911        6 
O       2.47262958      -0.67630777      -0.77784486        8 
O       1.09003416      -1.96817851       0.42471827        8 
O      -1.52314399      -1.53061670       0.94595015        8 
O      -2.40001881      -1.13534903      -1.08356657        8 
C      -2.27090956      -2.75653113       1.02953361        6 
C       3.29422821      -1.83357379      -1.01563640        6 
C       1.27124697       1.61023806       0.38149972        6 
C       0.53471790       2.79404088       0.31786975        6 
C      -0.80897499       2.79485542      -0.02941327        6 
C      -1.50143004       1.60767728      -0.27388700        6 
H      -3.33562083      -2.56962354       0.88013253        1 
H       3.66738587      -2.23932870      -0.07382156        1 
H      -1.34501962       3.73609416      -0.08860832        1 
H      -1.91737218      -3.46324033       0.27718522        1 
H      -2.08032797      -3.14007462       2.02892144        1 
H       4.11578199      -1.48067135      -1.63511265        1 
H       2.72397040      -2.60464042      -1.53585836        1 
H       1.02891474       3.73447722       0.53707678        1 
C      -2.97743609       1.65985622      -0.59675808        6 
C       2.73615472       1.67571859       0.74688312        6 
H       3.04037588       0.83471482       1.37249812        1 
H       2.94254220       2.59669473       1.29586113        1 
H       3.36447778       1.65960276      -0.14650357        1 
H      -3.56499793       1.04315157       0.08886003        1 
H      -3.17702949       1.28542643      -1.60210186        1 
H      -3.34028712       2.68631847      -0.52432214        1 
