30
Lattice="0.0 0.0 0.0 0.0 0.0 0.0 0.0 0.0 0.0" Properties=species:S:1:pos:R:3:Z:I:1 pbc="F F F"
C       0.13972944      -0.74441250       0.10613444        6 
C      -1.01203592       0.06633056       0.06348636        6 
C       1.51918449      -0.19435473       0.36156691        6 
C      -0.90129559       1.55032051      -0.10648702        6 
O       2.20899586      -0.05643221      -0.78972086        8 
O       1.96387112       0.06573350       1.44904212        8 
O       0.15460049       2.07107103       0.54357974        8 
O      -1.64749897       2.21703279      -0.78667971        8 
C       0.40368556       3.47239242       0.34116988        6 
C       3.55321372       0.44456140      -0.65939664        6 
C       0.04041434      -2.14506700       0.05719209        6 
C      -1.23149068      -2.71094491      -0.00888861        6 
C      -2.37148502      -1.91823338      -0.01500177        6 
C      -2.29386216      -0.52591007      -0.00142258        6 
H       0.58652605       3.67641948      -0.71516763        1 
H       3.54328115       1.43604677      -0.20435708        1 
H      -3.34822680      -2.38904674      -0.04391504        1 
H      -0.44780395       4.06428628       0.67934941        1 
H       1.28601866       3.69401954       0.93739425        1 
H       3.94509067       0.48967606      -1.67301456        1 
H       4.15266509      -0.22736624      -0.04312727        1 
H      -1.33027701      -3.79097193      -0.04159598        1 
C      -3.57787394       0.26873879      -0.04868649        6 
C       1.26634950      -3.02682354       0.08775676        6 
H       1.89663817      -2.85897190      -0.79011918        1 
H       0.98221251      -4.08016547       0.10149829        1 
H       1.87726363      -2.83306582       0.97420619        1 
H      -3.73822919       0.69750921      -1.03997887        1 
H      -3.57397887       1.10268823       0.65514227        1 
H      -4.42289980      -0.38028531       0.19053916        1 
