30
Lattice="0.0 0.0 0.0 0.0 0.0 0.0 0.0 0.0 0.0" Properties=species:S:1:pos:R:3:Z:I:1 pbc="F F F"
C       0.77559274       0.48637609      -0.07215514        6 
C      -0.60286245       0.51430716       0.15614118        6 
C       1.47150155      -0.83408488      -0.24922032        6 
C      -1.37627498      -0.77226276       0.26054355        6 
O       1.68672655      -1.44021950       0.92881608        8 
O       1.79815590      -1.29526242      -1.31687863        8 
O      -2.01346573      -1.03929774      -0.89717060        8 
O      -1.44680505      -1.47223836       1.24006793        8 
C      -2.81611748      -2.23637078      -0.91999592        6 
C       2.27410447      -2.75521068       0.87240443        6 
C       1.51026320       1.67320219      -0.20003315        6 
C       0.81951284       2.87767894      -0.06935348        6 
C      -0.55391723       2.90517782       0.16127380        6 
C      -1.29566662       1.72904101       0.26432785        6 
H      -2.19877985      -3.11232010      -0.71639820        1 
H       1.63472228      -3.42869647       0.29980911        1 
H      -1.06140207       3.85934778       0.25623356        1 
H      -3.61178357      -2.17551982      -0.17541894        1 
H      -3.23129475      -2.28507949      -1.92394717        1 
H       2.34369322      -3.08253175       1.90689577        1 
H       3.26139652      -2.71305567       0.41026312        1 
H       1.36590277       3.81108149      -0.15257959        1 
C      -2.79021819       1.75670405       0.47829811        6 
C       2.99266570       1.63887037      -0.47845970        6 
H       3.52307406       1.03471980       0.26394659        1 
H       3.41581412       2.64413206      -0.45916807        1 
H       3.19455930       1.19912440      -1.45905443        1 
H      -3.08539704       1.13185345       1.32632733        1 
H      -3.31774416       1.38210832      -0.40396793        1 
H      -3.13727752       2.77260258       0.67318034        1 
