30
Lattice="0.0 0.0 0.0 0.0 0.0 0.0 0.0 0.0 0.0" Properties=species:S:1:pos:R:3:Z:I:1 pbc="F F F"
C       0.87025026      -0.50755204      -0.03701380        6 
C       0.23016292       0.74670221      -0.10326418        6 
C       0.07828244      -1.77687881       0.01168965        6 
C      -1.25796623       0.89445179      -0.29559130        6 
O      -1.17404590      -1.62133484      -0.46316478        8 
O       0.48461985      -2.83947609       0.42447615        8 
O      -1.90424852       0.89457032       0.88809541        8 
O      -1.79836832       1.04844848      -1.36057504        8 
C      -3.33776369       1.01287755       0.81905341        6 
C      -2.03761019      -2.76755159      -0.39867381        6 
C       2.28020344      -0.57665346       0.04538262        6 
C       2.98853047       0.62593099       0.06738619        6 
C       2.34653366       1.85684573       0.02373968        6 
C       0.95871241       1.94316148      -0.07080024        6 
H      -3.62349526       1.94394796       0.32732428        1 
H      -1.61099728      -3.59997046      -0.95975338        1 
H       2.93348813       2.76867105       0.05495774        1 
H      -3.75852138       0.17176282       0.26526638        1 
H      -3.68007368       1.00210243       1.85142441        1 
H      -2.97440738      -2.44474129      -0.84784295        1 
H      -2.18899694      -3.07285014       0.63817341        1 
H       4.07099475       0.59208459       0.12270526        1 
C       0.26521015       3.28260459      -0.14928959        6 
C       3.05674223      -1.87093576       0.09472595        6 
H       2.90114256      -2.39495355       1.03965652        1 
H       4.12266528      -1.66500371      -0.02121304        1 
H       2.74851353      -2.56284167      -0.69118517        1 
H      -0.48235587       3.38990113       0.64209034        1 
H      -0.25187216       3.40176108      -1.10530769        1 
H       0.98297319       4.09759499      -0.04575594        1 
