30
Lattice="0.0 0.0 0.0 0.0 0.0 0.0 0.0 0.0 0.0" Properties=species:S:1:pos:R:3:Z:I:1 pbc="F F F"
C       0.87818468      -0.35832478      -0.07833425        6 
C       0.07103962       0.77854661       0.14965490        6 
C       0.33067999      -1.74017789       0.12177116        6 
C      -1.43357906       0.71796073       0.15977402        6 
O      -1.01741791      -1.77804456       0.16606487        8 
O       1.00173763      -2.72990460       0.31038925        8 
O      -1.89866827       0.47072049      -1.08129670        8 
O      -2.13890381       1.02531779       1.08959668        8 
C      -3.32787877       0.39759775      -1.21360613        6 
C      -1.61372211      -3.04759023       0.48070554        6 
C       2.26544484      -0.20630293      -0.29986143        6 
C       2.78940422       1.08784606      -0.26490366        6 
C       1.99631767       2.19307428       0.00915503        6 
C       0.62124920       2.06665710       0.21055062        6 
H      -3.71744222      -0.43130215      -0.61932229        1 
H      -1.38092091      -3.77970450      -0.29399283        1 
H       2.44664719       3.17928088       0.04564834        1 
H      -3.79643245       1.32604436      -0.88401909        1 
H      -3.51310962       0.22716661      -2.27188585        1 
H      -2.68436543      -2.85942020       0.52205497        1 
H      -1.25130796      -3.41291172       1.44245621        1 
H       3.84967017       1.22573990      -0.44639365        1 
C      -0.23389074       3.28934452       0.44837838        6 
C       3.20724026      -1.35269558      -0.58200169        6 
H       3.39524195      -1.94437628       0.31635853        1 
H       4.15843256      -0.96313671      -0.95032027        1 
H       2.80149943      -2.04378389      -1.32192591        1 
H      -0.72248201       3.24749380       1.42375950        1 
H      -1.02564049       3.37498469      -0.30197061        1 
H       0.37319999       4.19447014       0.39977394        1 
