30
Lattice="0.0 0.0 0.0 0.0 0.0 0.0 0.0 0.0 0.0" Properties=species:S:1:pos:R:3:Z:I:1 pbc="F F F"
C       0.63805114       0.50877515       0.02674833        6 
C      -0.76630782       0.40652793       0.10755902        6 
C       1.39307327      -0.77712548       0.15214691        6 
C      -1.46963496      -0.91892423       0.26372703        6 
O       2.72343102      -0.65955506      -0.02595768        8 
O       0.87238713      -1.84764857       0.37845784        8 
O      -1.60236316      -1.53993531      -0.92382780        8 
O      -1.97501722      -1.29883350       1.29009452        8 
C      -2.22334950      -2.83787237      -0.88183418        6 
C       3.47765998      -1.88163561       0.07417188        6 
C       1.24164835       1.78095862      -0.11475813        6 
C       0.39459702       2.89008286      -0.18767283        6 
C      -0.98721562       2.77339386      -0.11942252        6 
C      -1.59851606       1.52986395       0.03121686        6 
H      -1.62464743      -3.51340004      -0.26889348        1 
H       3.34890399      -2.33075834       1.05984695        1 
H      -1.60341717       3.66400777      -0.18634032        1 
H      -3.23171904      -2.76917388      -0.47071989        1 
H      -2.25178223      -3.17902300      -1.91455705        1 
H       4.51412570      -1.59261154      -0.08575002        1 
H       3.15398896      -2.59212980      -0.68790279        1 
H       0.83483588       3.87462675      -0.29834859        1 
C      -3.10267673       1.40686652       0.10146959        6 
C       2.72980934       2.03172079      -0.18428659        6 
H       3.24446750       1.65312212       0.70039544        1 
H       2.91750152       3.10403014      -0.26123080        1 
H       3.18313044       1.53735671      -1.04493522        1 
H      -3.42499937       1.05347596       1.08409885        1 
H      -3.47783479       0.69247955      -0.63722660        1 
H      -3.57722123       2.37029803      -0.09163690        1 
