30
Lattice="0.0 0.0 0.0 0.0 0.0 0.0 0.0 0.0 0.0" Properties=species:S:1:pos:R:3:Z:I:1 pbc="F F F"
C       0.99898042       0.14801442      -0.01947605        6 
C      -0.30201927       0.68039088      -0.05804352        6 
C       1.19793190      -1.33401552      -0.12369154        6 
C      -1.44790665      -0.25144567      -0.32266440        6 
O       0.40589574      -1.99714289       0.74604630        8 
O       1.97955135      -1.87867127      -0.86404106        8 
O      -2.44782267      -0.09100221       0.56489459        8 
O      -1.48457416      -1.05322118      -1.22631450        8 
C      -3.60777027      -0.92106208       0.36594304        6 
C       0.36400087      -3.42855036       0.59584989        6 
C       2.11886090       0.98063412       0.12011785        6 
C       1.88736717       2.35411458       0.22460418        6 
C       0.60270662       2.88183001       0.17321007        6 
C      -0.52045471       2.06370736       0.02959364        6 
H      -4.05232875      -0.72920865      -0.61190590        1 
H       0.01098538      -3.68433106      -0.40439992        1 
H       0.46597702       3.95615274       0.23543087        1 
H      -3.33697310      -1.97545807       0.43630029        1 
H      -4.29705686      -0.64838201       1.16197525        1 
H      -0.33716120      -3.77673129       1.35147112        1 
H       1.35110593      -3.86275241       0.75941165        1 
H       2.73310433       3.02291611       0.34174823        1 
C      -1.89602522       2.68398096      -0.05897554        6 
C       3.52560160       0.43601529       0.16509938        6 
H       3.62024316      -0.38499682       0.88026747        1 
H       4.22831474       1.22010662       0.45141911        1 
H       3.81980195       0.03813923      -0.80852903        1 
H      -2.45326095       2.54659060       0.87130576        1 
H      -2.49347573       2.23905262      -0.85815503        1 
H      -1.81624287       3.75426065      -0.25650211        1 
