30
Lattice="0.0 0.0 0.0 0.0 0.0 0.0 0.0 0.0 0.0" Properties=species:S:1:pos:R:3:Z:I:1 pbc="F F F"
C       1.02513861       0.01344130      -0.12845364        6 
C      -0.22199850       0.67845446      -0.02709356        6 
C       1.11542477      -1.47575135       0.05444906        6 
C      -1.50780054       0.00070365      -0.42569087        6 
O      -0.07826070      -2.09526595      -0.00682597        8 
O       2.12753291      -2.07291339       0.34835025        8 
O      -2.42645519       0.03247768       0.56214176        8 
O      -1.70095692      -0.50474438      -1.50157891        8 
C      -3.69648668      -0.57155615       0.25640064        6 
C      -0.08586922      -3.50634163       0.25909140        6 
C       2.22428599       0.75819644      -0.12744097        6 
C       2.13050865       2.14668274       0.00313337        6 
C       0.91092900       2.78503455       0.16175414        6 
C      -0.28930462       2.07192615       0.12944233        6 
H      -4.16657886      -0.07056477      -0.59157666        1 
H       0.55122568      -4.03349024      -0.45222233        1 
H       0.88151121       3.86311035       0.27942938        1 
H      -3.56524266      -1.62830569       0.01880163        1 
H      -4.29875660      -0.45202787       1.15444532        1 
H      -1.12304763      -3.81314312       0.14121755        1 
H       0.26399211      -3.70724520       1.27305102        1 
H       3.04186767       2.73426585      -0.00670723        1 
C      -1.60390563       2.81719679       0.20153256        6 
C       3.60009863       0.14939204      -0.25947326        6 
H       3.89995960      -0.35890270       0.65878161        1 
H       4.32621324       0.93508719      -0.47893803        1 
H       3.64343414      -0.59841363      -1.05195972        1 
H      -2.17395306       2.53923358       1.08997197        1 
H      -2.23546680       2.60440255      -0.66654186        1 
H      -1.42738849       3.89363293       0.22596558        1 
