30
Lattice="0.0 0.0 0.0 0.0 0.0 0.0 0.0 0.0 0.0" Properties=species:S:1:pos:R:3:Z:I:1 pbc="F F F"
C       0.77464058       0.44933174       0.16964747        6 
C      -0.62204981       0.45668722      -0.03636839        6 
C       1.55172944      -0.83784668       0.27678097        6 
C      -1.32028292      -0.85793658       0.13799930        6 
O       1.69542892      -1.40481184      -0.93503843        8 
O       2.10973326      -1.21948243       1.27609363        8 
O      -2.65869262      -0.74834426       0.25929641        8 
O      -0.76241817      -1.93166940       0.19197807        8 
C      -3.37658452      -1.98180754       0.44796579        6 
C       2.33552530      -2.69315736      -0.95076636        6 
C       1.52247544       1.63190557       0.18799453        6 
C       0.83944515       2.82918994      -0.02541031        6 
C      -0.52727920       2.84509490      -0.26771006        6 
C      -1.29581833       1.67786139      -0.27002899        6 
H      -3.23346096      -2.64052371      -0.40981976        1 
H       3.33322666      -2.63572962      -0.51351586        1 
H      -1.02070142       3.79274185      -0.45374440        1 
H      -3.03343824      -2.48846037       1.35070023        1 
H      -4.42140094      -1.69324762       0.54119036        1 
H       2.39002246      -2.97692957      -1.99960210        1 
H       1.72947848      -3.40774377      -0.39127776        1 
H       1.39227022       3.76261502      -0.01881932        1 
C      -2.77759058       1.81766382      -0.54136849        6 
C       3.01536818       1.62224268       0.41304283        6 
H       3.26027248       1.23408097       1.40409059        1 
H       3.42303606       2.62982395       0.32129669        1 
H       3.52348846       0.98405375      -0.31604595        1 
H      -3.37140689       1.61499468       0.35212796        1 
H      -3.12059474       1.12398767      -1.31010267        1 
H      -2.99242592       2.83494032      -0.87409418        1 
