30
Lattice="0.0 0.0 0.0 0.0 0.0 0.0 0.0 0.0 0.0" Properties=species:S:1:pos:R:3:Z:I:1 pbc="F F F"
C       0.58697021       0.47261839      -0.05088097        6 
C      -0.80309593       0.39456456       0.21062236        6 
C       1.36742196      -0.77764345       0.23793815        6 
C      -1.53161449      -0.92443568       0.19657916        6 
O       2.70420723      -0.60036999       0.22803543        8 
O       0.87350016      -1.85723116       0.47713055        8 
O      -1.36058116      -1.54018710      -0.99145213        8 
O      -2.34096798      -1.28017696       1.01909581        8 
C      -1.98609447      -2.82717858      -1.12342610        6 
C       3.49011025      -1.76900933       0.52637928        6 
C       1.18243434       1.72100346      -0.33182179        6 
C       0.35307375       2.84802157      -0.31396394        6 
C      -0.99470304       2.76739731      -0.00221649        6 
C      -1.61114942       1.53892510       0.24932584        6 
H      -1.55028443      -3.52482573      -0.40592781        1 
H       3.25094542      -2.14474015       1.52204045        1 
H      -1.59335475       3.67185518       0.01985062        1 
H      -3.06177880      -2.75537110      -0.95512821        1 
H      -1.77669337      -3.14740093      -2.14190335        1 
H       4.52528794      -1.43816067       0.47727867        1 
H       3.29949722      -2.55372817      -0.20696967        1 
H       0.78696278       3.81654412      -0.53705404        1 
C      -3.09971649       1.48605902       0.50799273        6 
C       2.64098674       1.93541205      -0.66326964        6 
H       3.27541559       1.80677429       0.21590157        1 
H       2.78250220       2.94851501      -1.04434619        1 
H       2.99611259       1.22935245      -1.41415970        1 
H      -3.31730859       1.07431560       1.49457030        1 
H      -3.61286465       0.84789619      -0.21703068        1 
H      -3.52851583       2.48714213       0.44023788        1 
