30
Lattice="0.0 0.0 0.0 0.0 0.0 0.0 0.0 0.0 0.0" Properties=species:S:1:pos:R:3:Z:I:1 pbc="F F F"
C       0.66773624       0.51762081       0.16744477        6 
C      -0.72758218       0.44357921       0.11373589        6 
C       1.46253999      -0.74118890       0.37059975        6 
C      -1.43905273      -0.85756087       0.37312777        6 
O       2.15054528      -1.05817393      -0.74808559        8 
O       1.49260631      -1.39826388       1.38016665        8 
O      -1.78563526      -1.45859741      -0.78646445        8 
O      -1.67551051      -1.31447086       1.46084014        8 
C      -2.49841593      -2.70641518      -0.66063566        6 
C       2.95722142      -2.25033429      -0.67407179        6 
C       1.33005373       1.74310081      -0.00354558        6 
C       0.54752761       2.87888885      -0.21020975        6 
C      -0.84110004       2.80183622      -0.27519451        6 
C      -1.50681438       1.58688887      -0.11849640        6 
H      -1.89284300      -3.43730067      -0.12295858        1 
H       3.71364821      -2.15197161       0.10622609        1 
H      -1.41950056       3.70404108      -0.44453509        1 
H      -3.43725025      -2.55582945      -0.12497803        1 
H      -2.68599223      -3.03545447      -1.68014118        1 
H       3.42272725      -2.34452862      -1.65243886        1 
H       2.33293756      -3.11883417      -0.45878597        1 
H       1.03332795       3.84166323      -0.32644515        1 
C      -3.01303618       1.50103823      -0.18425181        6 
C       2.83568545       1.83209275       0.03867833        6 
H       3.24690830       1.25938377       0.87442428        1 
H       3.15953508       2.86817757       0.14934708        1 
H       3.27642419       1.43159230      -0.87855299        1 
H      -3.42615980       1.06661348       0.73109590        1 
H      -3.33568648       0.87199367      -1.01915001        1 
H      -3.45415810       2.49002708      -0.31638864        1 
