30
Lattice="0.0 0.0 0.0 0.0 0.0 0.0 0.0 0.0 0.0" Properties=species:S:1:pos:R:3:Z:I:1 pbc="F F F"
C       0.72644391      -0.58571863       0.06499313        6 
C       0.31685245       0.75288907      -0.14654898        6 
C      -0.23926294      -1.71861389      -0.11259675        6 
C      -1.13160961       1.15438570      -0.09835663        6 
O      -1.45474984      -1.30459242      -0.53435150        8 
O       0.03084758      -2.89494703      -0.01800651        8 
O      -1.66745524       0.85523731       1.10498461        8 
O      -1.70839106       1.79317861      -0.94402687        8 
C      -3.06210044       1.16390313       1.26102658        6 
C      -2.42707645      -2.32786379      -0.79967409        6 
C       2.09725484      -0.88787828       0.22659411        6 
C       3.00490217       0.17335002       0.15548597        6 
C       2.59603994       1.47453327      -0.09126638        6 
C       1.24505375       1.79800026      -0.23842022        6 
H      -3.24722419       2.22450510       1.08556385        1 
H      -2.05232011      -3.02822649      -1.54725050        1 
H       3.33721478       2.26427320      -0.15314946        1 
H      -3.65683235       0.57543756       0.55919754        1 
H      -3.30691372       0.89521917       2.28636903        1 
H      -3.30234211      -1.80093316      -1.17366759        1 
H      -2.66614807      -2.87286494       0.11524192        1 
H       4.06122521      -0.03581997       0.28314192        1 
C       0.83246564       3.23446475      -0.45933727        6 
C       2.64556943      -2.27632935       0.45462093        6 
H       2.16866296      -2.76947614       1.30259881        1 
H       3.72032991      -2.21904949       0.63816063        1 
H       2.47185389      -2.92290477      -0.40822361        1 
H       0.10901111       3.56793483       0.28988885        1 
H       0.35868169       3.36510863      -1.43404701        1 
H       1.70300810       3.88975602      -0.40209457        1 
