30
Lattice="0.0 0.0 0.0 0.0 0.0 0.0 0.0 0.0 0.0" Properties=species:S:1:pos:R:3:Z:I:1 pbc="F F F"
C       0.72777342       0.47021895      -0.10788431        6 
C      -0.67006991       0.44844500       0.04675915        6 
C       1.47639518      -0.81722398      -0.33506347        6 
C      -1.31844396      -0.89998858       0.10796667        6 
O       2.16300242      -1.19015927       0.75570993        8 
O       1.49742050      -1.40578541      -1.38846867        8 
O      -2.55821972      -0.91576258      -0.41854170        8 
O      -0.78644050      -1.89036017       0.55607283        8 
C      -3.23251763      -2.18820486      -0.40512445        6 
C       2.82569310      -2.46643861       0.66864488        6 
C       1.44047500       1.67277656      -0.15355908        6 
C       0.71540692       2.85690226      -0.01624637        6 
C      -0.66252887       2.84274593       0.16413186        6 
C      -1.39070711       1.65086667       0.19469858        6 
H      -2.67063586      -2.92031298      -0.98642297        1 
H       2.08657559      -3.25159301       0.50330422        1 
H      -1.19185964       3.78155979       0.28631299        1 
H      -3.34476075      -2.55069269       0.61781413        1 
H      -4.20470588      -2.00274460      -0.85647377        1 
H       3.32090798      -2.60085997       1.62758463        1 
H       3.55162279      -2.46983446      -0.14591987        1 
H       1.24037285       3.80579649      -0.04738947        1 
C      -2.88598530       1.71838416       0.40968968        6 
C       2.93653455       1.68838051      -0.35125817        6 
H       3.44886022       1.22724912       0.49747298        1 
H       3.30331961       2.71029927      -0.45777696        1 
H       3.22311598       1.13088219      -1.24770503        1 
H      -3.22073915       1.02779524       1.18647760        1 
H      -3.42924298       1.45691352      -0.50062947        1 
H      -3.17348929       2.72877781       0.70618470        1 
