30
Lattice="0.0 0.0 0.0 0.0 0.0 0.0 0.0 0.0 0.0" Properties=species:S:1:pos:R:3:Z:I:1 pbc="F F F"
C       0.59437998       0.54963791      -0.09763273        6 
C      -0.80137282       0.38555453      -0.04579680        6 
C       1.41193918      -0.69855056      -0.21813202        6 
C      -1.44772411      -0.95550446      -0.28220426        6 
O       2.59826721      -0.61364989       0.41710173        8 
O       1.04970477      -1.70227157      -0.78817169        8 
O      -1.45564303      -1.70813152       0.83482900        8 
O      -1.93983528      -1.28826423      -1.32939805        8 
C      -1.98908498      -3.03860129       0.68371949        6 
C       3.42486396      -1.79128236       0.35742094        6 
C       1.15973716       1.83936174      -0.01498354        6 
C       0.28591328       2.91682584       0.14393483        6 
C      -1.08990015       2.74064622       0.23701167        6 
C      -1.66416929       1.47505988       0.13130381        6 
H      -3.02182644      -2.99929300       0.33419896        1 
H       2.91752868      -2.63505912       0.82755885        1 
H      -1.73093651       3.60475912       0.37704617        1 
H      -1.38445644      -3.59964568      -0.03035153        1 
H      -1.93423679      -3.48685141       1.67335604        1 
H       4.33041307      -1.53518409       0.90290064        1 
H       3.65516519      -2.04489558      -0.67829366        1 
H       0.69533197       3.91961533       0.19772592        1 
C      -3.16199029       1.28825875       0.18916196        6 
C       2.64090959       2.11562392      -0.12241459        6 
H       3.16682545       1.81944401       0.78736516        1 
H       2.80825617       3.18117042      -0.28899098        1 
H       3.09768939       1.56515083      -0.94690553        1 
H      -3.44108045       0.52672246       0.92309543        1 
H      -3.55576029       0.96523019      -0.77849272        1 
H      -3.65782922       2.22015134       0.46563733        1 
