30
Lattice="0.0 0.0 0.0 0.0 0.0 0.0 0.0 0.0 0.0" Properties=species:S:1:pos:R:3:Z:I:1 pbc="F F F"
C       0.82136421      -0.46170995      -0.08723558        6 
C       0.15699204       0.76276204       0.13814824        6 
C       0.14569687      -1.76618321       0.23247381        6 
C      -1.34376529       0.88280406       0.15306500        6 
O      -1.17553363      -1.78244324      -0.02957434        8 
O       0.70952515      -2.70037119       0.75529914        8 
O      -1.84988451       0.60820269      -1.06396701        8 
O      -1.99652589       1.35585267       1.05290278        8 
C      -3.27682459       0.72004045      -1.19226512        6 
C      -1.89122853      -2.95634200       0.39658105        6 
C       2.20711752      -0.48350226      -0.34643276        6 
C       2.88181314       0.73743756      -0.36914901        6 
C       2.23330566       1.93366767      -0.09280081        6 
C       0.86121180       1.97764804       0.15842274        6 
H      -3.77304749       0.01964808      -0.51767585        1 
H      -1.49243655      -3.84550949      -0.09322125        1 
H       2.79819228       2.85971212      -0.09558014        1 
H      -3.60865299       1.73368798      -0.96180754        1 
H      -3.49466621       0.47080478      -2.22846134        1 
H      -2.92380679      -2.78598359       0.09959088        1 
H      -1.81646763      -3.07626286       1.47831996        1 
H       3.94342677       0.74568890      -0.59097282        1 
C       0.17491396       3.30109905       0.40241168        6 
C       2.98316323      -1.75263529      -0.61002689        6 
H       3.19181462      -2.28688605       0.31896036        1 
H       3.93158475      -1.51175908      -1.09497855        1 
H       2.43440139      -2.44418175      -1.25158594        1 
H      -0.28357025       3.33233546       1.39243137        1 
H      -0.62415152       3.48034205      -0.32331134        1 
H       0.89096613       4.12022224       0.32156096        1 
