30
Lattice="0.0 0.0 0.0 0.0 0.0 0.0 0.0 0.0 0.0" Properties=species:S:1:pos:R:3:Z:I:1 pbc="F F F"
C       0.61441798       0.42661032       0.08046986        6 
C      -0.76993360       0.41803748      -0.20623908        6 
C       1.34272586      -0.86441540      -0.16470054        6 
C      -1.57046861      -0.85896893      -0.22948226        6 
O       2.65477422      -0.68663515      -0.42475905        8 
O       0.83406727      -1.96226197      -0.18091931        8 
O      -1.56465514      -1.43756065       0.98524360        8 
O      -2.29833399      -1.20186441      -1.13050907        8 
C      -2.27094566      -2.68578429       1.08825013        6 
C       3.40026871      -1.88243450      -0.71908681        6 
C       1.26971099       1.64133122       0.37137507        6 
C       0.50487169       2.81085857       0.33321358        6 
C      -0.83884626       2.79975860      -0.01164379        6 
C      -1.51289754       1.60518510      -0.27308686        6 
H      -3.31752842      -2.56412208       0.80483956        1 
H       3.36604642      -2.57248930       0.12521699        1 
H      -1.38835495       3.73441033      -0.05141767        1 
H      -1.80106916      -3.42898793       0.44184244        1 
H      -2.18641102      -2.98062427       2.13189862        1 
H       4.41889609      -1.54734587      -0.90198536        1 
H       2.99208435      -2.37700383      -1.60154863        1 
H       0.98300289       3.75530469       0.56900704        1 
C      -2.99327530       1.62240400      -0.57800747        6 
C       2.72839074       1.76108294       0.74805510        6 
H       3.03756669       0.97830868       1.44145762        1 
H       2.90588082       2.72935264       1.22024829        1 
H       3.37353243       1.68230476      -0.12923372        1 
H      -3.55539158       0.99134030       0.11633982        1 
H      -3.19537034       1.24241980      -1.58107253        1 
H      -3.38238432       2.63884304      -0.50182538        1 
