30
Lattice="0.0 0.0 0.0 0.0 0.0 0.0 0.0 0.0 0.0" Properties=species:S:1:pos:R:3:Z:I:1 pbc="F F F"
C       0.98385847       0.11812805       0.12472557        6 
C      -0.33007198       0.63624074      -0.00481988        6 
C       1.21834061      -1.36182244       0.03108735        6 
C      -1.45959979      -0.26744939       0.40366324        6 
O       0.31851103      -1.94771871      -0.79143786        8 
O       2.17860220      -1.95116469       0.46856950        8 
O      -2.61228977      -0.00253527      -0.24461280        8 
O      -1.35539529      -1.16280461       1.20902273        8 
C      -3.73751234      -0.82777403       0.10653922        6 
C       0.40195940      -3.37695873      -0.90462267        6 
C       2.10361759       0.96395463       0.07344883        6 
C       1.86728615       2.33128492      -0.11215961        6 
C       0.58689058       2.83532255      -0.26285755        6 
C      -0.54426403       2.01225441      -0.19675991        6 
H      -3.54197139      -1.86831473      -0.15716525        1 
H       1.39025562      -3.68108825      -1.25198500        1 
H       0.45031390       3.90100198      -0.41138012        1 
H      -3.94366137      -0.76253893       1.17574423        1 
H      -4.57270159      -0.43755833      -0.47130205        1 
H      -0.36126276      -3.65425381      -1.62892613        1 
H       0.19666259      -3.84079025       0.06203959        1 
H       2.71365532       3.00798465      -0.15470790        1 
C      -1.90683214       2.66181107      -0.29714182        6 
C       3.52862363       0.47657927       0.17759339        6 
H       3.71697622       0.00073384       1.14088878        1 
H       4.21719682       1.31471112       0.05585827        1 
H       3.75706745      -0.27387579      -0.58265839        1 
H      -2.52871039       2.44487982       0.57449481        1 
H      -2.45498901       2.30701779      -1.17080994        1 
H      -1.79519840       3.74479540      -0.37169615        1 
