30
Lattice="0.0 0.0 0.0 0.0 0.0 0.0 0.0 0.0 0.0" Properties=species:S:1:pos:R:3:Z:I:1 pbc="F F F"
C       0.76236620       0.45104426       0.15483701        6 
C      -0.61784422       0.42544648      -0.10973636        6 
C       1.55504344      -0.82389129       0.27329905        6 
C      -1.31933472      -0.90037548      -0.02976956        6 
O       1.81428346      -1.33837027      -0.93675499        8 
O       2.00371049      -1.25738570       1.30788992        8 
O      -2.47539627      -0.80531557       0.66066566        8 
O      -0.91678865      -1.94484852      -0.48528397        8 
C      -3.23132044      -2.02338855       0.79749989        6 
C       2.48810863      -2.61066973      -0.95464646        6 
C       1.46460696       1.65984034       0.24348005        6 
C       0.74889969       2.83818744       0.03188342        6 
C      -0.60842273       2.81641680      -0.26918383        6 
C      -1.32766728       1.62172537      -0.32892868        6 
H      -3.52494339      -2.40221037      -0.18300522        1 
H       3.43327211      -2.55465206      -0.41320742        1 
H      -1.12669674       3.75099313      -0.45549112        1 
H      -2.64099599      -2.78175603       1.31323073        1 
H      -4.10730343      -1.75375595       1.38318784        1 
H       2.65529722      -2.83330944      -2.00591925        1 
H       1.84791343      -3.36921997      -0.50167042        1 
H       1.26862755       3.78881331       0.08712856        1 
C      -2.80439519       1.66670451      -0.65091527        6 
C       2.94359747       1.68595031       0.54192388        6 
H       3.15241717       1.26112246       1.52674519        1 
H       3.32484880       2.70760563       0.51628915        1 
H       3.50526587       1.09667028      -0.18939514        1 
H      -3.40937629       1.56615123       0.25320193        1 
H      -3.10182338       0.86290204      -1.32704685        1 
H      -3.05411183       2.61758958      -1.12582999        1 
