30
Lattice="0.0 0.0 0.0 0.0 0.0 0.0 0.0 0.0 0.0" Properties=species:S:1:pos:R:3:Z:I:1 pbc="F F F"
C      -0.59590700      -0.67685646      -0.06123173        6 
C      -0.50552692       0.72232539       0.08017212        6 
C       0.63538531      -1.52672262      -0.04429643        6 
C       0.83140998       1.39873605       0.09744017        6 
O       1.52080255      -1.09477156       0.88082510        8 
O       0.81130832      -2.51796198      -0.71184415        8 
O       1.55856160       1.04926608      -0.98680501        8 
O       1.20659397       2.18745127       0.92912107        8 
C       2.89492507       1.57600875      -1.04546789        6 
C       2.75865021      -1.82134712       0.95695491        6 
C      -1.85068852      -1.31268074      -0.14471758        6 
C      -2.98713085      -0.50344288      -0.08199110        6 
C      -2.89513717       0.87420047       0.05977969        6 
C      -1.65967933       1.51926224       0.14522670        6 
H       2.87985454       2.66645299      -1.02739992        1 
H       2.57281813      -2.86816473       1.20123764        1 
H      -3.80269228       1.46720521       0.10236752        1 
H       3.48036522       1.21169957      -0.19899188        1 
H       3.30857579       1.21238051      -1.98345864        1 
H       3.32870066      -1.33749741       1.74679483        1 
H       3.29034902      -1.76595825       0.00518616        1 
H      -3.96591571      -0.96752174      -0.13831635        1 
C      -1.60570009       3.02175391       0.28645291        6 
C      -2.01873297      -2.80838037      -0.27433130        6 
H      -1.67496120      -3.16395073      -1.24739295        1 
H      -3.07002115      -3.07886338      -0.15627354        1 
H      -1.44101358      -3.35097312       0.47730678        1 
H      -0.97583942       3.47885765      -0.48147366        1 
H      -1.18870630       3.31143383       1.25280346        1 
H      -2.60762446       3.44441345       0.19633841        1 
