30
Lattice="0.0 0.0 0.0 0.0 0.0 0.0 0.0 0.0 0.0" Properties=species:S:1:pos:R:3:Z:I:1 pbc="F F F"
C      -0.04848605      -0.73537181       0.09356421        6 
C      -0.95004146       0.35111025       0.03672230        6 
C       1.43481975      -0.57742138       0.31554428        6 
C      -0.46278072       1.76447065       0.01889085        6 
O       2.10626117      -0.64417412      -0.84995399        8 
O       1.96013313      -0.50607346       1.39743141        8 
O       0.87832948       1.84799397       0.12687141        8 
O      -1.15878655       2.74784251      -0.10187760        8 
C       1.44256044       3.16824558       0.13412493        6 
C       3.53938137      -0.55496940      -0.75366721        6 
C      -0.50033480      -2.06315772       0.04207868        6 
C      -1.87220564      -2.28431008      -0.06606006        6 
C      -2.76723163      -1.22619770      -0.11297029        6 
C      -2.34250048       0.10275819      -0.06745614        6 
H       1.22830476       3.68008452      -0.80530215        1 
H       3.82881949       0.38865581      -0.28871607        1 
H      -3.82912923      -1.43148273      -0.19146956        1 
H       1.03675124       3.75010095       0.96264889        1 
H       2.51311583       3.02136963       0.25880125        1 
H       3.90203736      -0.60605721      -1.77775771        1 
H       3.93601659      -1.38187169      -0.16215299        1 
H      -2.24409506      -3.30300332      -0.10601219        1 
C      -3.40115463       1.17812691      -0.13452936        6 
C       0.45365957      -3.23229848       0.11769542        6 
H       1.17094475      -3.21539291      -0.70752172        1 
H      -0.09151041      -4.17618875       0.07054613        1 
H       1.02408195      -3.21886797       1.05052102        1 
H      -3.27651329       1.81238933      -1.01378334        1 
H      -3.35725346       1.84496381       0.72800991        1 
H      -4.38914414       0.71456212      -0.17130563        1 
