30
Lattice="0.0 0.0 0.0 0.0 0.0 0.0 0.0 0.0 0.0" Properties=species:S:1:pos:R:3:Z:I:1 pbc="F F F"
C       0.57358901      -0.55652935       0.14432358        6 
C      -0.81219054      -0.36726091       0.03901163        6 
C       1.43658940       0.66006585       0.28148739        6 
C      -1.43162714       0.97732063       0.31000263        6 
O       2.43205550       0.66247007      -0.62890939        8 
O       1.27223822       1.54340873       1.08812801        8 
O      -1.41721315       1.76050718      -0.78699847        8 
O      -1.88237884       1.31076107       1.37462626        8 
C      -1.94395807       3.09087994      -0.60846941        6 
C       3.33191515       1.78514009      -0.57597258        6 
C       1.12838191      -1.84749052       0.05213767        6 
C       0.25393497      -2.91556350      -0.15017373        6 
C      -1.11613684      -2.72048594      -0.28506245        6 
C      -1.67906826      -1.44984458      -0.17902525        6 
H      -2.98821418       3.04703630      -0.29542028        1 
H       2.79142195       2.71420295      -0.76302771        1 
H      -1.76306427      -3.57455528      -0.45681932        1 
H      -1.36263716       3.62399174       0.14492716        1 
H      -1.85332363       3.57069806      -1.58030646        1 
H       4.06490775       1.60407112      -1.35882153        1 
H       3.81509193       1.84228195       0.40066692        1 
H       0.65536721      -3.92175125      -0.20831539        1 
C      -3.17372491      -1.25588738      -0.27450406        6 
C       2.60839503      -2.11584748       0.18992625        6 
H       3.14513078      -1.84566487      -0.72239043        1 
H       2.78121324      -3.17473851       0.39093748        1 
H       3.05003349      -1.54161531       1.00757252        1 
H      -3.43286483      -0.48710795      -1.00801063        1 
H      -3.59190118      -0.94480212       0.68710684        1 
H      -3.66494108      -2.18369814      -0.57277504        1 
