30
Lattice="0.0 0.0 0.0 0.0 0.0 0.0 0.0 0.0 0.0" Properties=species:S:1:pos:R:3:Z:I:1 pbc="F F F"
C       0.39627267      -0.64979371       0.08604149        6 
C      -0.93892857      -0.21313200       0.03131855        6 
C       1.46474224       0.37512342       0.31091939        6 
C      -1.27085060       1.24150176       0.19464024        6 
O       2.50218707       0.21995478      -0.53430448        8 
O       1.41535425       1.24437978       1.14894796        8 
O      -0.71010236       1.98402170      -0.78091574        8 
O      -1.96526874       1.69091339       1.07118779        8 
C      -0.85774815       3.40983189      -0.64302634        6 
C       3.58970124       1.14828314      -0.37174235        6 
C       0.70534945      -2.02007786      -0.00883264        6 
C      -0.35570803      -2.91215689      -0.17306185        6 
C      -1.67229606      -2.47558327      -0.24651890        6 
C      -1.99592489      -1.12329944      -0.13377599        6 
H      -1.91268311       3.68479359      -0.60733082        1 
H       3.24634148       2.16839509      -0.54920454        1 
H      -2.46825700      -3.20030251      -0.38227611        1 
H      -0.36320319       3.74474824       0.27008544        1 
H      -0.37864220       3.83682743      -1.52127852        1 
H       4.33048709       0.85784845      -1.11326547        1 
H       4.00302935       1.07931007       0.63570700        1 
H      -0.14387512      -3.97405962      -0.23972694        1 
C      -3.43866373      -0.68025381      -0.19010480        6 
C       2.11233548      -2.56158823       0.08930151        6 
H       2.67947719      -2.35867253      -0.82182382        1 
H       2.08820750      -3.64176144       0.24558867        1 
H       2.66437051      -2.11497335       0.91941241        1 
H      -3.58852271       0.12202645      -0.91766540        1 
H      -3.76895781      -0.29950337       0.77889282        1 
H      -4.08276274      -1.51474045      -0.47337171        1 
