30
Lattice="0.0 0.0 0.0 0.0 0.0 0.0 0.0 0.0 0.0" Properties=species:S:1:pos:R:3:Z:I:1 pbc="F F F"
C       0.39880002      -0.60572629      -0.00728974        6 
C      -0.94562565      -0.17259787       0.12188083        6 
C       1.46424458       0.38281050       0.36486758        6 
C      -1.28835240       1.28803019       0.07710373        6 
O       2.65705009       0.12373904      -0.20708228        8 
O       1.28223671       1.33612839       1.08662964        8 
O      -0.55685773       1.92876896      -0.86001342        8 
O      -2.20998330       1.80643054       0.66098985        8 
C      -0.76758185       3.34659558      -0.95538899        6 
C       3.72510441       1.02557110       0.13329995        6 
C       0.69140884      -1.97227386      -0.19379496        6 
C      -0.38810093      -2.86082368      -0.26182781        6 
C      -1.69691863      -2.43508753      -0.12039207        6 
C      -2.01277063      -1.08549472       0.06721684        6 
H      -1.81501720       3.56756356      -1.16506435        1 
H       3.49446592       2.03440077      -0.21198736        1 
H      -2.50129720      -3.16153045      -0.16793428        1 
H      -0.47346615       3.82931336      -0.02175678        1 
H      -0.13324472       3.67895592      -1.77434792        1 
H       4.60370216       0.63685644      -0.37704039        1 
H       3.88127956       1.04364774       1.21275905        1 
H      -0.18870807      -3.91695037      -0.40719542        1 
C      -3.46787876      -0.69075652       0.17192102        6 
C       2.08312367      -2.55584050      -0.29043452        6 
H       2.61492709      -2.18149291      -1.16601243        1 
H       2.02165128      -3.64336039      -0.36023753        1 
H       2.69225374      -2.30617885       0.58066188        1 
H      -3.73940247       0.07083688      -0.56271173        1 
H      -3.69559737      -0.26904796       1.15199073        1 
H      -4.10118108      -1.56493856       0.00925928        1 
