30
Lattice="0.0 0.0 0.0 0.0 0.0 0.0 0.0 0.0 0.0" Properties=species:S:1:pos:R:3:Z:I:1 pbc="F F F"
C      -0.46792519      -0.70197711      -0.10550153        6 
C      -0.61299644       0.69260103       0.06379994        6 
C       0.88509020      -1.34860161      -0.08336170        6 
C       0.57896836       1.59079665      -0.02087308        6 
O       1.57861498      -0.98117803       1.01707709        8 
O       1.28205655      -2.16641933      -0.87684123        8 
O       1.51106795       1.09084923      -0.86372156        8 
O       0.68903122       2.67133454       0.50959953        8 
C       2.72653459       1.84529023      -0.98951579        6 
C       2.90421518      -1.52630628       1.12895551        6 
C      -1.58726424      -1.54736204      -0.17878812        6 
C      -2.84825355      -0.95638139      -0.06919347        6 
C      -2.99567997       0.41054662       0.11056028        6 
C      -1.89461260       1.26900013       0.17589081        6 
H       2.51677241       2.85261382      -1.35139905        1 
H       2.87082711      -2.61648821       1.14665946        1 
H      -3.99253792       0.83035953       0.19009437        1 
H       3.23421911       1.90870692      -0.02517204        1 
H       3.33175654       1.29693714      -1.70808876        1 
H       3.29889201      -1.13877927       2.06557099        1 
H       3.51873690      -1.20123761       0.28720451        1 
H      -3.73068205      -1.58579013      -0.11739445        1 
C      -2.13837073       2.74993742       0.33736871        6 
C      -1.47979665      -3.04573193      -0.34516448        6 
H      -1.03240677      -3.30600537      -1.30588467        1 
H      -2.46918004      -3.50236567      -0.28405408        1 
H      -0.85181772      -3.49700533       0.42784028        1 
H      -1.63816269       3.33294447      -0.43899528        1 
H      -1.75471945       3.11443561       1.29169456        1 
H      -3.20906992       2.95747017       0.28752594        1 
