30
Lattice="0.0 0.0 0.0 0.0 0.0 0.0 0.0 0.0 0.0" Properties=species:S:1:pos:R:3:Z:I:1 pbc="F F F"
C       0.66188678       0.47609063       0.15759020        6 
C      -0.70791594       0.47108637      -0.12220559        6 
C       1.37741962      -0.84344797       0.21492413        6 
C      -1.43880127      -0.83541270      -0.27562694        6 
O       2.22578538      -0.97891501      -0.82204011        8 
O       1.22081114      -1.68576112       1.06559216        8 
O      -1.90254669      -1.27589740       0.90360426        8 
O      -1.63581194      -1.39009229      -1.33062641        8 
C      -2.60126131      -2.53621816       0.88069462        6 
C       2.94575289      -2.22565785      -0.89148823        6 
C       1.36064285       1.68127932       0.31619251        6 
C       0.63293280       2.86655389       0.20612289        6 
C      -0.73027786       2.85943681      -0.07972888        6 
C      -1.43037306       1.66505176      -0.24768734        6 
H      -3.47214632      -2.47893756       0.22581453        1 
H       3.56198866      -2.36155737      -0.00132309        1 
H      -1.26347168       3.80026026      -0.16739521        1 
H      -1.93600691      -3.32754640       0.53287795        1 
H      -2.90221031      -2.71623120       1.90994083        1 
H       3.56532016      -2.15075293      -1.78201762        1 
H       2.24775215      -3.05944975      -0.97826799        1 
H       1.14419042       3.81372553       0.34155497        1 
C      -2.90959050       1.64943455      -0.54923248        6 
C       2.84227951       1.69591093       0.60112795        6 
H       3.10523882       0.98126651       1.38616030        1 
H       3.16511063       2.68610859       0.92671924        1 
H       3.41252316       1.42456248      -0.29139677        1 
H      -3.46578807       1.12148157       0.23162375        1 
H      -3.11461857       1.14181165      -1.49599875        1 
H      -3.30491969       2.66419148      -0.61565305        1 
