30
Lattice="0.0 0.0 0.0 0.0 0.0 0.0 0.0 0.0 0.0" Properties=species:S:1:pos:R:3:Z:I:1 pbc="F F F"
C       0.71796996       0.45193805       0.05354190        6 
C      -0.69283856       0.43678429       0.01003008        6 
C       1.44629525      -0.83116664       0.35314448        6 
C      -1.34367453      -0.90146759      -0.17817778        6 
O       2.37343588      -1.12121057      -0.57605086        8 
O       1.22464519      -1.51628159       1.32138470        8 
O      -2.59462953      -0.96214121       0.31850218        8 
O      -0.80143865      -1.84960346      -0.69766103        8 
C      -3.26929023      -2.22570891       0.17315193        6 
C       3.05743590      -2.37676361      -0.40079609        6 
C       1.43383755       1.65456653       0.05421085        6 
C       0.70146381       2.84244772      -0.01900343        6 
C      -0.68415529       2.83394073      -0.07764677        6 
C      -1.41715512       1.64232145      -0.07083166        6 
H      -3.36462420      -2.48935147      -0.88139948        1 
H       3.58229730      -2.39865431       0.55540203        1 
H      -1.21904382       3.77531891      -0.14149326        1 
H      -2.71813428      -3.01123232       0.69154982        1 
H      -4.24920052      -2.08164031       0.62305441        1 
H       3.76033156      -2.44104188      -1.22838607        1 
H       2.33991979      -3.19762283      -0.43935494        1 
H       1.22991405       3.78981971      -0.01887942        1 
C      -2.92347267       1.72772692      -0.17845951        6 
C       2.94001209       1.69503327       0.15741257        6 
H       3.30163811       1.09567369       0.99739848        1 
H       3.28525951       2.71978438       0.30301865        1 
H       3.40748386       1.29702862      -0.74590071        1 
H      -3.40972753       1.36182677       0.72727344        1 
H      -3.31021927       1.12942812      -1.00622780        1 
H      -3.22429736       2.76456593      -0.33869958        1 
