30
Lattice="0.0 0.0 0.0 0.0 0.0 0.0 0.0 0.0 0.0" Properties=species:S:1:pos:R:3:Z:I:1 pbc="F F F"
C      -0.14297634      -0.75741312       0.14828548        6 
C      -0.84693176       0.45338714      -0.04645702        6 
C       1.35988267      -0.84234618       0.18028956        6 
C      -0.16073696       1.77531583       0.09489582        6 
O       1.86471345      -0.67329156      -1.05833103        8 
O       2.01688910      -1.17768372       1.13449952        8 
O       1.17197018       1.65512769       0.26868866        8 
O      -0.71409079       2.85160813       0.12868402        8 
C       1.89816414       2.86963320       0.51499327        6 
C       3.29435857      -0.76755509      -1.16933502        6 
C      -0.81075671      -1.99109049       0.20234618        6 
C      -2.19537699      -1.98899029       0.03254789        6 
C      -2.89109436      -0.81164747      -0.19365211        6 
C      -2.25182141       0.42961619      -0.22733302        6 
H       1.84138429       3.52887115      -0.35253319        1 
H       3.77163281       0.00105701      -0.55872883        1 
H      -3.96495488      -0.85047406      -0.34027855        1 
H       1.49309084       3.38514290       1.38652031        1 
H       2.92442930       2.55822674       0.69657487        1 
H       3.51486937      -0.61039122      -2.22292067        1 
H       3.64227949      -1.74979080      -0.84545530        1 
H      -2.73375378      -2.93062362       0.06330499        1 
C      -3.10775966       1.65319281      -0.45495866        6 
C      -0.08051051      -3.29759148       0.41227851        6 
H       0.68936201      -3.45603738      -0.34873487        1 
H      -0.77857917      -4.13467735       0.35876309        1 
H       0.41707424      -3.32152772       1.38379490        1 
H      -2.72060886       2.27893720      -1.25975203        1 
H      -3.14420777       2.28705477       0.43311905        1 
H      -4.12473733       1.34470696      -0.70608519        1 
