30
Lattice="0.0 0.0 0.0 0.0 0.0 0.0 0.0 0.0 0.0" Properties=species:S:1:pos:R:3:Z:I:1 pbc="F F F"
C      -0.64742664      -0.66670447      -0.03193620        6 
C      -0.46849745       0.72425672       0.09155102        6 
C       0.52951009      -1.58992331      -0.04744378        6 
C       0.90752430       1.31976020       0.16285854        6 
O       1.48603423      -1.19065720       0.81790228        8 
O       0.61966103      -2.59547136      -0.71122284        8 
O       1.59531689       1.07270938      -0.97270326        8 
O       1.34165007       1.96114563       1.08618496        8 
C       2.95815824       1.53246366      -0.99364301        6 
C       2.69085635      -1.97423896       0.83774024        6 
C      -1.94237185      -1.21854230      -0.12134479        6 
C      -3.02318543      -0.33617542      -0.08105821        6 
C      -2.84208831       1.03557495       0.03783646        6 
C      -1.56780618       1.59645337       0.13001098        6 
H       3.00005451       2.61588871      -0.87319491        1 
H       2.47234565      -3.00413400       1.12356531        1 
H      -3.70906763       1.68744262       0.06006008        1 
H       3.52614889       1.06049637      -0.18978014        1 
H       3.34842872       1.23845976      -1.96537908        1 
H       3.33109074      -1.49822723       1.57693965        1 
H       3.16273576      -1.96905631      -0.14652754        1 
H      -4.02967598      -0.73661071      -0.13953826        1 
C      -1.39991559       3.09107190       0.25650082        6 
C      -2.20984622      -2.70126397      -0.23583856        6 
H      -1.88936026      -3.08860602      -1.20473502        1 
H      -3.27719663      -2.89743831      -0.11671706        1 
H      -1.67102889      -3.27414522       0.52229195        1 
H      -0.75378585       3.49073022      -0.53058928        1 
H      -0.94260214       3.35540591       1.21210075        1 
H      -2.36658246       3.59202896       0.18235128        1 
