30
Lattice="0.0 0.0 0.0 0.0 0.0 0.0 0.0 0.0 0.0" Properties=species:S:1:pos:R:3:Z:I:1 pbc="F F F"
C       0.91428135       0.27431263       0.14228354        6 
C      -0.46448071       0.55581259      -0.03341668        6 
C       1.41266643      -1.14382380       0.08086405        6 
C      -1.40797061      -0.55753867       0.32315397        6 
O       0.88830659      -1.78274406      -0.98845712        8 
O       2.29994915      -1.60402778       0.75783024        8 
O      -2.69464051      -0.30392342       0.00654840        8 
O      -1.07120049      -1.60437140       0.82944385        8 
C      -3.63913974      -1.33946034       0.33170195        6 
C       1.19725590      -3.18151891      -1.09558962        6 
C       1.87832385       1.29073305       0.13546418        6 
C       1.42717667       2.59927086      -0.06640022        6 
C       0.08719369       2.87896736      -0.27694101        6 
C      -0.89581172       1.88203857      -0.24946578        6 
H      -3.40453353      -2.25404611      -0.21498791        1 
H       2.27562805      -3.34154148      -1.13681884        1 
H      -0.21764914       3.90553319      -0.44778599        1 
H      -3.62516402      -1.54920447       1.40211347        1 
H      -4.60828434      -0.94894923       0.02822076        1 
H       0.72489725      -3.51314659      -2.01797913        1 
H       0.78027671      -3.71587858      -0.23962909        1 
H       2.14866542       3.40921997      -0.07836908        1 
C      -2.33285221       2.31707472      -0.43222494        6 
C       3.35475759       1.02564228       0.30438990        6 
H       3.56794275       0.59331276       1.28309044        1 
H       3.91852021       1.95383142       0.19650609        1 
H       3.72471074       0.31206632      -0.43625013        1 
H      -2.93282666       2.11976204       0.45871774        1 
H      -2.81459060       1.78940656      -1.25594320        1 
H      -2.36755624       3.38880605      -0.63660273        1 
