30
Lattice="0.0 0.0 0.0 0.0 0.0 0.0 0.0 0.0 0.0" Properties=species:S:1:pos:R:3:Z:I:1 pbc="F F F"
C       0.54988496      -0.57287041      -0.13472253        6 
C      -0.83128055      -0.35691884      -0.02314065        6 
C       1.43808739       0.62494856      -0.27939674        6 
C      -1.41864220       1.00102447      -0.29549825        6 
O       2.40922763       0.63275262       0.65616014        8 
O       1.31280541       1.48716543      -1.11541115        8 
O      -1.33750457       1.80546360       0.78260797        8 
O      -1.88755998       1.33225896      -1.35330780        8 
C      -1.80732105       3.15502278       0.58728164        6 
C       3.33378301       1.73525804       0.59484219        6 
C       1.08091876      -1.87341846      -0.05158166        6 
C       0.18748625      -2.92656668       0.14625655        6 
C      -1.17855914      -2.70638838       0.28464207        6 
C      -1.71782426      -1.42466318       0.18806244        6 
H      -1.24619140       3.63195778      -0.21719317        1 
H       3.85423142       1.74424693      -0.36417182        1 
H      -1.84137447      -3.54917328       0.45128893        1 
H      -2.86951595       3.15534948       0.33763202        1 
H      -1.63558188       3.66105337       1.53457478        1 
H       4.03330699       1.57049408       1.41115556        1 
H       2.80611346       2.68104946       0.72524342        1 
H       0.57048637      -3.94035120       0.19707138        1 
C      -3.20919577      -1.20533550       0.27958753        6 
C       2.55646224      -2.16329912      -0.19234055        6 
H       3.00344226      -1.59939011      -1.01462105        1 
H       2.71496657      -3.22528479      -0.38861484        1 
H       3.09944723      -1.89606140       0.71723817        1 
H      -3.62151366      -0.90798113      -0.68892963        1 
H      -3.45802632      -0.41759370       0.99619326        1 
H      -3.71469090      -2.11920594       0.59656787        1 
