30
Lattice="0.0 0.0 0.0 0.0 0.0 0.0 0.0 0.0 0.0" Properties=species:S:1:pos:R:3:Z:I:1 pbc="F F F"
C       0.80052638       0.43126304      -0.05362594        6 
C      -0.59208037       0.53436715      -0.15844839        6 
C       1.47838117      -0.88155874      -0.34203594        6 
C      -1.39498994      -0.72719828      -0.29588302        6 
O       1.61654767      -1.62436587       0.77664246        8 
O       1.81734305      -1.24497803      -1.43737923        8 
O      -2.27954582      -0.84871481       0.71781515        8 
O      -1.28477566      -1.54072553      -1.17981599        8 
C      -3.13620234      -2.00562427       0.67406273        6 
C       2.17580293      -2.94068971       0.58722194        6 
C       1.59578803       1.56211539       0.17222775        6 
C       0.95192076       2.79414036       0.28339034        6 
C      -0.43008329       2.90193892       0.15559379        6 
C      -1.23318514       1.78016571      -0.05034896        6 
H      -3.74086221      -1.99908807      -0.23445318        1 
H       1.54670495      -3.52027499      -0.09002219        1 
H      -0.89597674       3.87918519       0.22342787        1 
H      -2.54370241      -2.92108899       0.70271137        1 
H      -3.76782661      -1.92989115       1.55634978        1 
H       2.19692469      -3.39054935       1.57730306        1 
H       3.18256612      -2.87151313       0.17292065        1 
H       1.54296864       3.68719255       0.45688947        1 
C      -2.73302847       1.92311537      -0.16314959        6 
C       3.09599945       1.43902086       0.27186317        6 
H       3.38198897       0.72995560       1.05433362        1 
H       3.55338610       2.40177938       0.50460693        1 
H       3.52281601       1.07867716      -0.66883067        1 
H      -3.22679445       1.61212533       0.76088013        1 
H      -3.13855329       1.30754955      -0.97004652        1 
H      -3.00387580       2.96100711      -0.36507105        1 
