30
Lattice="0.0 0.0 0.0 0.0 0.0 0.0 0.0 0.0 0.0" Properties=species:S:1:pos:R:3:Z:I:1 pbc="F F F"
C       0.46183394      -0.50656224      -0.06964994        6 
C      -0.90244002      -0.18381396       0.19514642        6 
C       1.46519710       0.52800294       0.36724675        6 
C      -1.40391194       1.22239458       0.00297938        6 
O       2.74778587       0.14510832       0.18653760        8 
O       1.18573130       1.60124319       0.84904036        8 
O      -0.71469456       1.84528389      -0.97799429        8 
O      -2.44075052       1.66564379       0.44102401        8 
C      -1.12885400       3.18503789      -1.27952867        6 
C       3.74677899       1.07878429       0.63148644        6 
C       0.82985070      -1.83346320      -0.37143930        6 
C      -0.17837039      -2.80740765      -0.34511144        6 
C      -1.47679488      -2.50661348       0.01518775        6 
C      -1.88249328      -1.18929444       0.26886867        6 
H      -2.17249771       3.20539008      -1.59809103        1 
H       3.66486276       2.01697803       0.08079312        1 
H      -2.21398831      -3.30107562       0.06463908        1 
H      -1.00604537       3.82372724      -0.40285851        1 
H      -0.47540078       3.51451060      -2.08457731        1 
H       4.70070782       0.59609888       0.42931100        1 
H       3.63437888       1.28014846       1.69779610        1 
H       0.08121415      -3.83340538      -0.58296875        1 
C      -3.34495104      -0.94222512       0.55798242        6 
C       2.22382307      -2.31044179      -0.71448387        6 
H       2.70889314      -1.66473609      -1.44527457        1 
H       2.16795468      -3.32143541      -1.12288791        1 
H       2.86905317      -2.33217612       0.16633593        1 
H      -3.80894374      -0.31139290      -0.20372752        1 
H      -3.48735843      -0.42862799       1.50885560        1 
H      -3.87803172      -1.89479244       0.58820156        1 
