30
Lattice="0.0 0.0 0.0 0.0 0.0 0.0 0.0 0.0 0.0" Properties=species:S:1:pos:R:3:Z:I:1 pbc="F F F"
C       0.65603975       0.44792318       0.13551800        6 
C      -0.71943018       0.45632683      -0.13285585        6 
C       1.35461076      -0.88004208       0.13090981        6 
C      -1.48453453      -0.83253590      -0.28049110        6 
O       2.40180134      -0.88453214      -0.71769193        8 
O       1.02384108      -1.84522884       0.77810462        8 
O      -1.89520485      -1.29230962       0.90939090        8 
O      -1.77740784      -1.33429903      -1.33996899        8 
C      -2.61758557      -2.53898883       0.89164880        6 
C       3.12459927      -2.12720941      -0.81803866        6 
C       1.35770097       1.65102714       0.31936554        6 
C       0.63092175       2.83956096       0.23738092        6 
C      -0.73066705       2.84395645      -0.05122432        6 
C      -1.43590129       1.65575168      -0.23906508        6 
H      -3.51721493      -2.45229137       0.28029754        1 
H       3.52067227      -2.41898805       0.15581123        1 
H      -1.25992211       3.78854177      -0.12042206        1 
H      -1.98193105      -3.33174789       0.49525216        1 
H      -2.87262073      -2.73771028       1.92985065        1 
H       3.93142960      -1.93478953      -1.52137700        1 
H       2.46932081      -2.91570803      -1.19097427        1 
H       1.14349309       3.78194817       0.39822740        1 
C      -2.91640010       1.65726238      -0.53609908        6 
C       2.83699985       1.68444227       0.61877236        6 
H       3.12271810       0.91107572       1.33576556        1 
H       3.11819353       2.65229599       1.03780437        1 
H       3.42452950       1.51825290      -0.28750620        1 
H      -3.47176233       1.09355618       0.21989800        1 
H      -3.12490955       1.19447092      -1.50447836        1 
H      -3.30836576       2.67524201      -0.55170301        1 
