30
Lattice="0.0 0.0 0.0 0.0 0.0 0.0 0.0 0.0 0.0" Properties=species:S:1:pos:R:3:Z:I:1 pbc="F F F"
C       1.03396855       0.11472836       0.12732768        6 
C      -0.27024542       0.66006591       0.06278361        6 
C       1.25849943      -1.36019647      -0.04792864        6 
C      -1.49676243      -0.13928724       0.42554948        6 
O       0.14526057      -2.09312152       0.13565665        8 
O       2.30013432      -1.85944207      -0.41214242        8 
O      -2.35413282      -0.23251749      -0.61234616        8 
O      -1.70261416      -0.61977014       1.50993324        8 
C      -3.58280469      -0.93642435      -0.35304198        6 
C       0.25141674      -3.50351947      -0.11420941        6 
C       2.15750946       0.97059568       0.10495542        6 
C       1.92978709       2.34489460       0.00169082        6 
C       0.65082757       2.86794612      -0.11362133        6 
C      -0.47371156       2.04293975      -0.06932777        6 
H      -3.37664252      -1.96800336      -0.06335625        1 
H       0.50081803      -3.68919710      -1.16037860        1 
H       0.51733866       3.94011167      -0.21141206        1 
H      -4.14424350      -0.44672050       0.44447301        1 
H      -4.13812861      -0.90410581      -1.28784229        1 
H      -0.72883689      -3.90961803       0.12629824        1 
H       1.01689173      -3.94883236       0.52237909        1 
H       2.78153992       3.01592282      -0.00185035        1 
C      -1.85849388       2.65017684      -0.11711066        6 
C       3.58646339       0.48907888       0.18782692        6 
H       3.71995691      -0.26852329       0.96071588        1 
H       4.24479067       1.33263156       0.40606348        1 
H       3.90344540       0.02949361      -0.75030269        1 
H      -2.46832536       2.32924818       0.73267908        1 
H      -2.38948811       2.35695290      -1.02521254        1 
H      -1.79860633       3.73920165      -0.08909818        1 
