30
Lattice="0.0 0.0 0.0 0.0 0.0 0.0 0.0 0.0 0.0" Properties=species:S:1:pos:R:3:Z:I:1 pbc="F F F"
C       0.95644690       0.23947584      -0.07721283        6 
C      -0.40023201       0.62599710      -0.02300672        6 
C       1.32681128      -1.21498371      -0.11462333        6 
C      -1.42554260      -0.42479006      -0.33153954        6 
O       0.68206287      -1.90597610       0.85010907        8 
O       2.16448466      -1.69938442      -0.83520391        8 
O      -2.58470259      -0.23890082       0.33108116        8 
O      -1.24080241      -1.36172683      -1.07373599        8 
C      -3.62071369      -1.20440550       0.07426752        6 
C       0.84236606      -3.33482718       0.81069440        6 
C       1.98905428       1.18226717       0.02101244        6 
C       1.62171023       2.52271359       0.16425068        6 
C       0.28999392       2.90957920       0.20672206        6 
C      -0.75259344       1.98310232       0.10737844        6 
H      -3.86124011      -1.23534808      -0.98933993        1 
H       0.41961772      -3.72553361      -0.11683600        1 
H       0.04648830       3.96181596       0.30598554        1 
H      -3.30375500      -2.19654734       0.39917867        1 
H      -4.47785180      -0.86778942       0.65348966        1 
H       0.29320565      -3.71217991       1.67075020        1 
H       1.89595453      -3.60948894       0.87584082        1 
H       2.39834689       3.27572220       0.24456132        1 
C      -2.17634766       2.49353504       0.10953773        6 
C       3.44864314       0.79668872      -0.00649770        6 
H       3.67520859       0.01807535       0.72639788        1 
H       4.07324108       1.66402069       0.21332271        1 
H       3.73017376       0.39710603      -0.98245118        1 
H      -2.70966016       2.18297938       1.00963708        1 
H      -2.74705689       2.11596922      -0.74155767        1 
H      -2.18041481       3.58398564       0.06301781        1 
