30
Lattice="0.0 0.0 0.0 0.0 0.0 0.0 0.0 0.0 0.0" Properties=species:S:1:pos:R:3:Z:I:1 pbc="F F F"
C       0.72378610       0.32053711      -0.12239675        6 
C      -0.69308981       0.31631528       0.09994819        6 
C       1.44319590      -0.95641620       0.25113963        6 
C      -1.45915142      -0.89100662      -0.39104969        6 
O       2.78973645      -0.86259709       0.14768282        8 
O       0.91110021      -1.97855389       0.60692184        8 
O      -2.69293172      -0.99502405       0.15529829        8 
O      -1.02463418      -1.71530408      -1.15432892        8 
C      -3.46502835      -2.13340912      -0.26503710        6 
C       3.51876594      -2.05279016       0.49358738        6 
C       1.41588727       1.53697866      -0.26250188        6 
C       0.68521276       2.72524022      -0.10890085        6 
C      -0.65265401       2.71831787       0.22466696        6 
C      -1.38652995       1.52454709       0.29765671        6 
H      -3.63462715      -2.10636985      -1.34277650        1 
H       3.33450515      -2.32715777       1.53339340        1 
H      -1.16800897       3.65977355       0.38119879        1 
H      -2.94666643      -3.05834405      -0.00860764        1 
H      -4.40761012      -2.05723016       0.27332785        1 
H       4.56671174      -1.80203206       0.34186709        1 
H       3.22203373      -2.88163685      -0.15073629        1 
H       1.20062994       3.67285364      -0.22128910        1 
C      -2.87609567       1.65037728       0.54321425        6 
C       2.89067299       1.68314782      -0.56651703        6 
H       3.50734429       1.47916508       0.31130735        1 
H       3.08846854       2.70594139      -0.89403529        1 
H       3.21550525       0.99697881      -1.34719950        1 
H      -3.19885666       1.04395345       1.38895152        1 
H      -3.46167657       1.32372075      -0.31892508        1 
H      -3.12314586       2.69424393       0.74522132        1 
