30
Lattice="0.0 0.0 0.0 0.0 0.0 0.0 0.0 0.0 0.0" Properties=species:S:1:pos:R:3:Z:I:1 pbc="F F F"
C       0.78305433      -0.59351005      -0.00598785        6 
C       0.33001371       0.73783910      -0.09988309        6 
C      -0.18182470      -1.73697657       0.00080516        6 
C      -1.12979427       1.08321084      -0.23236991        6 
O      -1.36217353      -1.41463344      -0.56889082        8 
O       0.04623889      -2.84538589       0.42908202        8 
O      -1.75581425       1.00714105       0.96015599        8 
O      -1.66303966       1.43678785      -1.25288511        8 
C      -3.17070539       1.27293661       0.94261384        6 
C      -2.37599909      -2.43250243      -0.57020879        6 
C       2.16739023      -0.86610763       0.07984407        6 
C       3.04167822       0.22231595       0.07374117        6 
C       2.58432744       1.53133695      -0.00576044        6 
C       1.22268520       1.81709467      -0.09879490        6 
H      -3.37027621       2.27507244       0.56072581        1 
H      -2.02128450      -3.32405830      -1.08862395        1 
H       3.29843368       2.34812227       0.00075119        1 
H      -3.68232548       0.54190828       0.31386328        1 
H      -3.49585673       1.18278813       1.97663880        1 
H      -3.22104576      -1.99433441      -1.09694027        1 
H      -2.65115771      -2.69726509       0.45243639        1 
H       4.10808945       0.03566572       0.13344230        1 
C       0.73145117       3.24126544      -0.20203987        6 
C       2.74531791      -2.25942227       0.16061183        6 
H       2.48782156      -2.74304051       1.10427122        1 
H       3.83255726      -2.21460245       0.07243625        1 
H       2.35916382      -2.90731107      -0.62871202        1 
H      -0.03165508       3.45680662       0.55168523        1 
H       0.28229978       3.43142246      -1.18028154        1 
H       1.55315940       3.94438594      -0.05844155        1 
