30
Lattice="0.0 0.0 0.0 0.0 0.0 0.0 0.0 0.0 0.0" Properties=species:S:1:pos:R:3:Z:I:1 pbc="F F F"
C      -0.43637102      -0.71518802       0.08884323        6 
C      -0.69800978       0.65985121       0.00645740        6 
C       0.96686612      -1.22571843       0.26771195        6 
C       0.43902163       1.62106719      -0.15566726        6 
O       1.64469604      -1.19642018      -0.89761321        8 
O       1.43542165      -1.60409141       1.31073778        8 
O       1.34261144       1.49067842       0.83514810        8 
O       0.56620829       2.38578664      -1.08113618        8 
C       2.53807290       2.28287593       0.71500441        6 
C       3.01352037      -1.64289364      -0.84264525        6 
C      -1.48266339      -1.65231893       0.10606145        6 
C      -2.78775437      -1.16949532       0.02881336        6 
C      -3.05032220       0.19435189      -0.04905882        6 
C      -2.02036584       1.13363413      -0.07814567        6 
H       3.05198360       2.05561562      -0.22061130        1 
H       3.58291169      -1.03398386      -0.13869438        1 
H      -4.07824050       0.53828831      -0.09707202        1 
H       2.29475384       3.34606536       0.73938883        1 
H       3.15103081       2.00896921       1.57052882        1 
H       3.39635939      -1.52551520      -1.85359673        1 
H       3.06018837      -2.68767494      -0.53108693        1 
H      -3.61338739      -1.87348772       0.03543465        1 
C      -2.34102479       2.60401555      -0.19515630        6 
C      -1.21221083      -3.13413871       0.21257632        6 
H      -0.52572768      -3.47436861      -0.56867752        1 
H      -2.13777645      -3.70400486       0.11437177        1 
H      -0.75816550      -3.38250212       1.17546698        1 
H      -2.04490798       2.99273833      -1.17222301        1 
H      -1.81359083       3.19549767       0.55796802        1 
H      -3.41177297       2.76966408      -0.06500644        1 
