30
Lattice="0.0 0.0 0.0 0.0 0.0 0.0 0.0 0.0 0.0" Properties=species:S:1:pos:R:3:Z:I:1 pbc="F F F"
C       0.69701140       0.46208854      -0.07016374        6 
C      -0.71286715       0.43770825      -0.03038653        6 
C       1.37034389      -0.87546865      -0.03872603        6 
C      -1.49242288      -0.82172251      -0.32447168        6 
O       2.69956334      -0.81835065       0.18076020        8 
O       0.79278188      -1.93053317      -0.17915747        8 
O      -1.98215367      -1.37899937       0.79796234        8 
O      -1.70771714      -1.22757431      -1.43786215        8 
C      -2.70370405      -2.61266384       0.61598456        6 
C       3.37715875      -2.08711386       0.23689667        6 
C       1.37968213       1.69958743      -0.01468504        6 
C       0.60679895       2.85879687       0.09399709        6 
C      -0.77919109       2.81904053       0.16630299        6 
C      -1.46906408       1.60990984       0.09177172        6 
H      -3.58667773      -2.45332937      -0.00553368        1 
H       2.98241489      -2.69380745       1.05307274        1 
H      -1.33758132       3.74441570       0.26303214        1 
H      -2.05697185      -3.35397478       0.14489184        1 
H      -2.99103996      -2.93048885       1.61590491        1 
H       4.42386457      -1.84555294       0.40861394        1 
H       3.25395632      -2.62793262      -0.70246793        1 
H       1.10980391       3.81872751       0.12912602        1 
C      -2.97980293       1.57398790       0.11545836        6 
C       2.88049117       1.85930621      -0.07905246        6 
H       3.36445555       1.46561916       0.81674391        1 
H       3.13331577       2.91710203      -0.17197684        1 
H       3.30930383       1.32422379      -0.92723216        1 
H      -3.34953575       0.99648352       0.96680799        1 
H      -3.37709606       1.10825102      -0.79127802        1 
H      -3.38902297       2.58289630       0.18366477        1 
