30
Lattice="0.0 0.0 0.0 0.0 0.0 0.0 0.0 0.0 0.0" Properties=species:S:1:pos:R:3:Z:I:1 pbc="F F F"
C       0.81574823      -0.46578918       0.07848152        6 
C       0.18068217       0.77741966      -0.14823841        6 
C       0.06708557      -1.75245729      -0.10409942        6 
C      -1.31659893       0.93226863      -0.12279475        6 
O      -1.25360096      -1.56897237      -0.31593495        8 
O       0.57181770      -2.85121755      -0.16580304        8 
O      -1.79352256       0.67565545       1.11300347        8 
O      -1.98830474       1.38339934      -1.01790584        8 
C      -3.21798573       0.78403400       1.26906625        6 
C      -2.02547624      -2.74102412      -0.62421217        6 
C       2.21510119      -0.51817535       0.27005654        6 
C       2.92280265       0.68481752       0.20336271        6 
C       2.29617235       1.89109659      -0.07171919        6 
C       0.91291575       1.96839308      -0.24500175        6 
H      -3.56110003       1.78837192       1.01602647        1 
H      -1.61524577      -3.24988009      -1.49729450        1 
H       2.88767846       2.79828633      -0.13494008        1 
H      -3.72306703       0.06054803       0.62591146        1 
H      -3.41334785       0.56409298       2.31637373        1 
H      -3.02945853      -2.37631384      -0.83045870        1 
H      -2.03138742      -3.42823124       0.22346676        1 
H       3.99596923       0.66659235       0.35780603        1 
C       0.25000447       3.30171762      -0.50011720        6 
C       2.98899888      -1.78668865       0.54034539        6 
H       2.53419113      -2.37983409       1.33455612        1 
H       4.01239635      -1.53685852       0.82807583        1 
H       3.01981145      -2.43130793      -0.34024015        1 
H      -0.52290839       3.51685724       0.24352895        1 
H      -0.23800531       3.31788307      -1.47651819        1 
H       0.98612467       4.10607198      -0.46278481        1 
