30
Lattice="0.0 0.0 0.0 0.0 0.0 0.0 0.0 0.0 0.0" Properties=species:S:1:pos:R:3:Z:I:1 pbc="F F F"
C      -0.36747704      -0.72318602       0.18657148        6 
C      -0.58662547       0.65233987      -0.10505219        6 
C       0.97888161      -1.35084465      -0.03478368        6 
C       0.49105294       1.65933546       0.18087240        6 
O       1.56905735      -0.82459873      -1.13269892        8 
O       1.40320479      -2.33739814       0.52008123        8 
O       1.60652058       1.09677817       0.69681484        8 
O       0.34896630       2.86155259       0.14659793        8 
C       2.63599041       2.00096744       1.12391942        6 
C       2.84353689      -1.38237998      -1.48411191        6 
C      -1.44705826      -1.60816377       0.35535978        6 
C      -2.73746646      -1.09663007       0.16864142        6 
C      -2.94888727       0.21590428      -0.20925624        6 
C      -1.89401049       1.12896655      -0.33125735        6 
H       2.99873046       2.59360052       0.28242570        1 
H       3.56121145      -1.23106767      -0.67513658        1 
H      -3.96120155       0.56141336      -0.38903055        1 
H       2.26066293       2.67135673       1.89871325        1 
H       3.42812941       1.36720307       1.51702670        1 
H       3.15694269      -0.84716475      -2.37793463        1 
H       2.75499843      -2.45090143      -1.68713331        1 
H      -3.58711185      -1.76038850       0.28807570        1 
C      -2.24198317       2.55743089      -0.67455211        6 
C      -1.29692146      -3.07770942       0.67530887        6 
H      -0.72670989      -3.60627331      -0.09249247        1 
H      -2.28238814      -3.54208792       0.74928707        1 
H      -0.76513640      -3.23225686       1.61457096        1 
H      -1.59941331       2.95968410      -1.45707114        1 
H      -2.12214567       3.21444070       0.18981460        1 
H      -3.28105370       2.60758966      -1.00790136        1 
