30
Lattice="0.0 0.0 0.0 0.0 0.0 0.0 0.0 0.0 0.0" Properties=species:S:1:pos:R:3:Z:I:1 pbc="F F F"
C       0.44789834      -0.55933411       0.04095467        6 
C      -0.91761436      -0.21135992      -0.14345766        6 
C       1.44959320       0.48993950      -0.34672028        6 
C      -1.36246100       1.22167777      -0.05718124        6 
O       2.71169085       0.20230821       0.03155888        8 
O       1.17211537       1.51316936      -0.93005138        8 
O      -0.73020690       1.85967252       0.95127525        8 
O      -2.30169268       1.69852144      -0.64886606        8 
C      -1.04766100       3.25180465       1.10326677        6 
C       3.71190737       1.16664980      -0.34146119        6 
C       0.81183316      -1.90485443       0.26373601        6 
C      -0.21616495      -2.85585223       0.29214803        6 
C      -1.53753071      -2.51560245       0.06858069        6 
C      -1.92709348      -1.18813806      -0.14206469        6 
H      -0.76550046       3.79815696       0.20148675        1 
H       3.74556404       1.28217439      -1.42581311        1 
H      -2.29618539      -3.29127881       0.07701557        1 
H      -2.11372379       3.38766939       1.29203814        1 
H      -0.46110326       3.59096003       1.95442426        1 
H       4.65128928       0.76515021       0.03247026        1 
H       3.49685829       2.13411396       0.11425585        1 
H       0.03860731      -3.89508645       0.46900180        1 
C      -3.39691515      -0.88740956      -0.32300068        6 
C       2.22322884      -2.41562716       0.44681157        6 
H       2.83441967      -2.24575593      -0.44205587        1 
H       2.19953636      -3.48915038       0.64306949        1 
H       2.72966326      -1.92147469       1.27628046        1 
H      -3.59662623      -0.45448336      -1.30404442        1 
H      -3.76116359      -0.16644922       0.41255426        1 
H      -3.97791908      -1.80580943      -0.21864620        1 
