30
Lattice="0.0 0.0 0.0 0.0 0.0 0.0 0.0 0.0 0.0" Properties=species:S:1:pos:R:3:Z:I:1 pbc="F F F"
C       0.60061529       0.54204444       0.06938871        6 
C      -0.79927314       0.38365732       0.08338082        6 
C       1.40840339      -0.70964709       0.21035161        6 
C      -1.44836948      -0.96477343       0.26785571        6 
O       2.67384266      -0.59260529      -0.23857321        8 
O       0.97475788      -1.75167388       0.64913701        8 
O      -1.44638803      -1.66886741      -0.88035014        8 
O      -1.98879921      -1.32119519       1.28375780        8 
C      -1.98688806      -3.00102920      -0.79493239        6 
C       3.48104446      -1.78141902      -0.14897177        6 
C       1.16232227       1.83373519      -0.04443295        6 
C       0.28050721       2.91007503      -0.16970879        6 
C      -1.09765204       2.73767562      -0.18973214        6 
C      -1.66839483       1.47302593      -0.05635899        6 
H      -1.39228583      -3.59577074      -0.09978097        1 
H       3.54932834      -2.12086469       0.88541540        1 
H      -1.74283210       3.60261533      -0.30305990        1 
H      -3.02399840      -2.97390808      -0.45700791        1 
H      -1.92121293      -3.40568631      -1.80263258        1 
H       4.45966224      -1.49319080      -0.52651068        1 
H       3.05237568      -2.57793681      -0.75906186        1 
H       0.68797880       3.91150215      -0.25234246        1 
C      -3.16815658       1.29156340      -0.06328522        6 
C       2.64343536       2.12979372      -0.01470838        6 
H       3.13690797       1.65402668       0.83440317        1 
H       2.80132810       3.20735824       0.05510937        1 
H       3.14169063       1.76351413      -0.91419283        1 
H      -3.53074098       0.96052442       0.91326242        1 
H      -3.47480083       0.53734794      -0.79385512        1 
H      -3.66833259       2.22784206      -0.31631878        1 
