30
Lattice="0.0 0.0 0.0 0.0 0.0 0.0 0.0 0.0 0.0" Properties=species:S:1:pos:R:3:Z:I:1 pbc="F F F"
C       1.01433787      -0.14394249      -0.05188310        6 
C      -0.10379426       0.71952019      -0.03609324        6 
C       0.83187174      -1.62879691       0.01820572        6 
C      -1.48107781       0.21823310      -0.38477839        6 
O      -0.44527749      -1.97416792       0.28992826        8 
O       1.71508200      -2.45335328      -0.05270443        8 
O      -2.34270911       0.35630884       0.64089761        8 
O      -1.79081919      -0.19990763      -1.47259671        8 
C      -3.69845077      -0.04883724       0.37965151        6 
C      -0.72981638      -3.37973312       0.36217890        6 
C       2.31912962       0.39052095       0.03675892        6 
C       2.44467743       1.77811359       0.15056811        6 
C       1.33946245       2.61543222       0.18498471        6 
C       0.04350464       2.10784478       0.07924944        6 
H      -4.12340759       0.53709634      -0.43707939        1 
H      -0.50025494      -3.86415423      -0.58795567        1 
H       1.48198087       3.68697663       0.27722143        1 
H      -3.73493346      -1.10708571       0.11618637        1 
H      -4.23969561       0.13406463       1.30542205        1 
H      -1.79413266      -3.44724484       0.57750800        1 
H      -0.14684414      -3.84727126       1.15699319        1 
H       3.43841411       2.20647433       0.21851667        1 
C      -1.14341752       3.04395824       0.06113729        6 
C       3.57788607      -0.44259505       0.02951969        6 
H       3.61394241      -1.12806685       0.87889943        1 
H       4.45063800       0.21209668       0.07134169        1 
H       3.64431962      -1.06512708      -0.86351212        1 
H      -1.76014263       2.91786822       0.95400384        1 
H      -1.78557878       2.86157984      -0.80562645        1 
H      -0.81105945       4.08209622       0.01564693        1 
