30
Lattice="0.0 0.0 0.0 0.0 0.0 0.0 0.0 0.0 0.0" Properties=species:S:1:pos:R:3:Z:I:1 pbc="F F F"
C       0.76591458       0.44711900      -0.03082339        6 
C      -0.63618029       0.47888527      -0.13296978        6 
C       1.53161953      -0.81502137      -0.33944335        6 
C      -1.35141325      -0.83857768      -0.18611670        6 
O       1.82793577      -1.50275480       0.78155008        8 
O       1.81819547      -1.17365389      -1.45079327        8 
O      -2.47598882      -0.83029300       0.56329609        8 
O      -0.97573730      -1.81942220      -0.78267672        8 
C      -3.22995704      -2.05614079       0.58003746        6 
C       2.45882955      -2.78384071       0.57795035        6 
C       1.50718632       1.61778729       0.17352594        6 
C       0.80923616       2.82205492       0.25756889        6 
C      -0.57288567       2.86408293       0.11213787        6 
C      -1.32875233       1.70474466      -0.06891081        6 
H      -3.54498557      -2.32577900      -0.42927516        1 
H       1.80806478      -3.42547664      -0.01783976        1 
H      -1.08185665       3.82149083       0.14485625        1 
H      -2.62993509      -2.86703491       0.99559722        1 
H      -4.09248723      -1.85511652       1.21176373        1 
H       2.60381681      -3.19626741       1.57389915        1 
H       3.41552142      -2.66416006       0.06726067        1 
H       1.35898705       3.74419728       0.41437364        1 
C      -2.82896139       1.82687328      -0.21672769        6 
C       3.01234106       1.57180859       0.27058144        6 
H       3.33639750       0.91486378       1.08262295        1 
H       3.42232816       2.56594914       0.45410896        1 
H       3.45219305       1.18921754      -0.65527833        1 
H      -3.34096794       1.56359935       0.71149496        1 
H      -3.21995080       1.16874057      -0.99480788        1 
H      -3.09346733       2.85362487      -0.47690596        1 
