30
Lattice="0.0 0.0 0.0 0.0 0.0 0.0 0.0 0.0 0.0" Properties=species:S:1:pos:R:3:Z:I:1 pbc="F F F"
C       0.71592268       0.47477726       0.12078317        6 
C      -0.67092682       0.45795408      -0.08376882        6 
C       1.41837301      -0.84148169       0.29827317        6 
C      -1.34233820      -0.87712275      -0.22171402        6 
O       2.29877518      -1.07789381      -0.68730754        8 
O       1.21653964      -1.59596208       1.21981148        8 
O      -2.36859952      -1.02177537       0.63485907        8 
O      -1.01226223      -1.72347810      -1.01908260        8 
C      -3.07419559      -2.27670345       0.56641424        6 
C       2.95746241      -2.35965971      -0.64519931        6 
C       1.41971902       1.68122450       0.21818131        6 
C       0.68762354       2.86360519       0.09457664        6 
C      -0.68560643       2.84813485      -0.12822411        6 
C      -1.39851897       1.65073841      -0.21545258        6 
H      -3.46890770      -2.43878851      -0.43768996        1 
H       3.50458435      -2.48001528       0.29084185        1 
H      -1.21892286       3.78674572      -0.23591739        1 
H      -2.40615147      -3.09797068       0.82897398        1 
H      -3.88193507      -2.19254978       1.28989964        1 
H       3.63711871      -2.36241397      -1.49413546        1 
H       2.21950227      -3.15740205      -0.74038367        1 
H       1.20446959       3.81429199       0.17204524        1 
C      -2.88959197       1.66501852      -0.45932872        6 
C       2.90948706       1.70764727       0.45609366        6 
H       3.19067667       1.07192257       1.30077732        1 
H       3.24942048       2.72176360       0.67165582        1 
H       3.45045907       1.34071126      -0.41982870        1 
H      -3.43596300       1.36059978       0.43644164        1 
H      -3.17573373       0.97683549      -1.25949279        1 
H      -3.22121442       2.66529817      -0.74306873        1 
