30
Lattice="0.0 0.0 0.0 0.0 0.0 0.0 0.0 0.0 0.0" Properties=species:S:1:pos:R:3:Z:I:1 pbc="F F F"
C      -0.52955429      -0.68449118      -0.11265555        6 
C      -0.50623812       0.71459739       0.11299699        6 
C       0.71836121      -1.49883122       0.03982385        6 
C       0.77374940       1.47786033      -0.03252969        6 
O       1.55510722      -0.95558318       0.95507816        8 
O       0.91713054      -2.58363686      -0.45558047        8 
O       1.54845749       0.94245128      -1.00563795        8 
O       1.04510614       2.51681273       0.52141858        8 
C       2.81892989       1.57607935      -1.21886964        6 
C       2.77861035      -1.67077989       1.18780913        6 
C      -1.75088539      -1.37284660      -0.24284383        6 
C      -2.92699514      -0.62320608      -0.12867949        6 
C      -2.90341192       0.73711141       0.12698172        6 
C      -1.70123286       1.44383784       0.24303728        6 
H       2.68768824       2.62927724      -1.47053472        1 
H       2.57121673      -2.68120540       1.54317775        1 
H      -3.83937569       1.27714250       0.22291622        1 
H       3.43617394       1.49623727      -0.32166235        1 
H       3.27539193       1.03723216      -2.04642286        1 
H       3.30765461      -1.09828838       1.94657836        1 
H       3.36623438      -1.72944488       0.26954084        1 
H      -3.88114680      -1.13038739      -0.22510963        1 
C      -1.75690191       2.93559442       0.47018185        6 
C      -1.86774645      -2.86264877      -0.46711407        6 
H      -1.41895000      -3.16043045      -1.41567273        1 
H      -2.91989457      -3.15434386      -0.46816522        1 
H      -1.35333694      -3.43402330       0.30867495        1 
H      -1.21046922       3.48537300      -0.29938223        1 
H      -1.30456942       3.20866381       1.42458884        1 
H      -2.79514003       3.27237001       0.46219518        1 
