30
Lattice="0.0 0.0 0.0 0.0 0.0 0.0 0.0 0.0 0.0" Properties=species:S:1:pos:R:3:Z:I:1 pbc="F F F"
C       0.35773645      -0.62623678       0.00142240        6 
C      -0.96360447      -0.12474409       0.12140759        6 
C       1.47637200       0.29594281       0.38966983        6 
C      -1.22952048       1.35045767       0.06132173        6 
O       2.62934285       0.03143943      -0.25676771        8 
O       1.36399938       1.19949329       1.18478084        8 
O      -0.38728085       1.96293078      -0.79971515        8 
O      -2.17273217       1.91248100       0.56571819        8 
C      -0.53103207       3.38767470      -0.90966473        6 
C       3.74762384       0.86875025       0.08665952        6 
C       0.58543277      -2.00338302      -0.18489036        6 
C      -0.53464983      -2.83921484      -0.26273016        6 
C      -1.82179646      -2.34990252      -0.12926058        6 
C      -2.07379323      -0.98652539       0.05778725        6 
H      -1.54917786       3.65068884      -1.19962831        1 
H       3.54221189       1.90549705      -0.18409419        1 
H      -2.66007127      -3.03632631      -0.18242054        1 
H      -0.29097894       3.86167783       0.04381078        1 
H       0.17813207       3.69177778      -1.67662441        1 
H       4.58564538       0.48134769      -0.48869896        1 
H       3.95408288       0.81283967       1.15636703        1 
H      -0.38539044      -3.90360909      -0.40872896        1 
C      -3.51031715      -0.52734134       0.15166275        6 
C       1.95096313      -2.64821519      -0.26804004        6 
H       2.50099844      -2.30878425      -1.14654756        1 
H       1.84277438      -3.73287390      -0.32342829        1 
H       2.56749188      -2.41459827       0.60272385        1 
H      -3.74428605       0.23886826      -0.59071072        1 
H      -3.72491249      -0.08694873       1.12634067        1 
H      -4.17972413      -1.37521798      -0.00644067        1 
