30
Lattice="0.0 0.0 0.0 0.0 0.0 0.0 0.0 0.0 0.0" Properties=species:S:1:pos:R:3:Z:I:1 pbc="F F F"
C       0.85194095      -0.44381582       0.00451215        6 
C       0.24417256       0.81408754      -0.09451866        6 
C       0.00167089      -1.66528988       0.19958077        6 
C      -1.24372882       0.92681031      -0.29057337        6 
O      -0.88539051      -1.82419945      -0.80100071        8 
O       0.06690953      -2.39796904       1.15722494        8 
O      -1.89723082       0.85315207       0.88756195        8 
O      -1.79236169       1.03647110      -1.35703961        8 
C      -3.33630654       0.89856869       0.81693838        6 
C      -1.82824318      -2.90288854      -0.65682865        6 
C       2.24978569      -0.56320297       0.08371799        6 
C       3.00194380       0.60975768       0.03597383        6 
C       2.39450131       1.85972825      -0.05435120        6 
C       1.00851051       1.98843692      -0.12838956        6 
H      -3.66740097       1.83972656       0.37554372        1 
H      -1.30950244      -3.86210356      -0.62508478        1 
H       3.01033281       2.75244692      -0.07536601        1 
H      -3.71264387       0.06905423       0.21614478        1 
H      -3.67863266       0.81479389       1.84580660        1 
H      -2.46992403      -2.84132803      -1.53272465        1 
H      -2.40926643      -2.77947771       0.25879624        1 
H       4.08380321       0.54369647       0.07805072        1 
C       0.34400140       3.33871119      -0.24583909        6 
C       2.92202215      -1.90918722       0.21266179        6 
H       2.72451062      -2.35181936       1.19145038        1 
H       4.00137904      -1.81199134       0.08481925        1 
H       2.55563114      -2.61544341      -0.53781480        1 
H      -0.35299547       3.50879224       0.58080266        1 
H      -0.22683992       3.41583709      -1.17530024        1 
H       1.08328345       4.14079309      -0.23210890        1 
