30
Lattice="0.0 0.0 0.0 0.0 0.0 0.0 0.0 0.0 0.0" Properties=species:S:1:pos:R:3:Z:I:1 pbc="F F F"
C       0.71420450       0.43979029       0.01586818        6 
C      -0.69686853       0.44066992       0.05146243        6 
C       1.36408336      -0.90182261      -0.13691131        6 
C      -1.44376652      -0.83165533       0.36149103        6 
O       2.66515678      -0.92273641       0.21240244        8 
O       0.77824454      -1.89447865      -0.50634555        8 
O      -2.28945004      -1.17201193      -0.62709925        8 
O      -1.32953250      -1.44246739       1.39512468        8 
C      -3.02921451      -2.39090397      -0.42425901        6 
C       3.31739762      -2.20255403       0.11251472        6 
C       1.41909352       1.65844416      -0.07030377        6 
C       0.66797992       2.83840879      -0.09563848        6 
C      -0.71833004       2.82905910      -0.05133787        6 
C      -1.43221504       1.63184212       0.03065680        6 
H      -2.34157776      -3.23137882      -0.32143812        1 
H       2.83052377      -2.92722394       0.76644282        1 
H      -1.26086659       3.76844945      -0.07043178        1 
H      -3.64990120      -2.31891240       0.47041231        1 
H      -3.64684248      -2.50544596      -1.31239394        1 
H       4.34361579      -2.02719555       0.42772602        1 
H       3.28610200      -2.56918756      -0.91458790        1 
H       1.18943858       3.78684019      -0.16268604        1 
C      -2.94153512       1.64876066       0.11795662        6 
C       2.92291258       1.77157521      -0.16121504        6 
H       3.40675691       1.38924555       0.73885677        1 
H       3.20700770       2.81719371      -0.29157385        1 
H       3.32448533       1.19940633      -0.99978694        1 
H      -3.30206469       1.06351085       0.96867569        1 
H      -3.39482065       1.22395999      -0.78065638        1 
H      -3.30553607       2.67048834       0.23720902        1 
