30
Lattice="0.0 0.0 0.0 0.0 0.0 0.0 0.0 0.0 0.0" Properties=species:S:1:pos:R:3:Z:I:1 pbc="F F F"
C       0.64456456       0.49027568       0.00640827        6 
C      -0.75799297       0.43104936      -0.13529188        6 
C       1.36774905      -0.81194116      -0.14115757        6 
C      -1.49846206      -0.87556891      -0.27521377        6 
O       2.71028177      -0.71177990      -0.08448005        8 
O       0.81566704      -1.87849120      -0.30276828        8 
O      -1.65563708      -1.47144407       0.92188331        8 
O      -2.02357139      -1.25111914      -1.29395671        8 
C      -2.31487902      -2.75039423       0.89788704        6 
C       3.43521242      -1.94645289      -0.23433251        6 
C       1.27872605       1.74161980       0.18959718        6 
C       0.46445420       2.87698386       0.22402724        6 
C      -0.91350503       2.80515845       0.07176830        6 
C      -1.55608010       1.58100401      -0.10730511        6 
H      -3.31535803      -2.66085870       0.47188136        1 
H       3.17317790      -2.64150942       0.56465567        1 
H      -1.50401896       3.71494676       0.10184472        1 
H      -1.72871370      -3.45619640       0.30717494        1 
H      -2.36634315      -3.06964549       1.93667888        1 
H       4.48589086      -1.67086525      -0.17492517        1 
H       3.20989581      -2.40666266      -1.19720277        1 
H       0.92966953       3.84568128       0.36888925        1 
C      -3.05830413       1.50983815      -0.25553545        6 
C       2.76692593       1.94406390       0.35567429        6 
H       3.16508978       1.35938046       1.18608987        1 
H       2.97284006       2.99914053       0.54362555        1 
H       3.31648180       1.63705141      -0.53577883        1 
H      -3.50051838       0.83374264       0.48225977        1 
H      -3.33982187       1.13659054      -1.24291203        1 
H      -3.50441890       2.49581066      -0.11679035        1 
