30
Lattice="0.0 0.0 0.0 0.0 0.0 0.0 0.0 0.0 0.0" Properties=species:S:1:pos:R:3:Z:I:1 pbc="F F F"
C      -0.00110185      -0.76419333       0.10812154        6 
C      -0.94755136       0.26046013      -0.03941459        6 
C       1.45965306      -0.45645698       0.29398939        6 
C      -0.54801768       1.67958673       0.22238321        6 
O       2.10527951      -0.47385316      -0.88460060        8 
O       2.00540282      -0.31458506       1.36132027        8 
O       0.55033494       2.03346882      -0.47531801        8 
O      -1.10129657       2.41050470       1.00794847        8 
C       1.10457923       3.32631213      -0.16472146        6 
C       3.52336879      -0.23274320      -0.83031633        6 
C      -0.37996842      -2.11497997       0.05007040        6 
C      -1.72594469      -2.40181982      -0.17257703        6 
C      -2.66484962      -1.38869641      -0.33536132        6 
C      -2.30697108      -0.04409049      -0.24948190        6 
H       0.36654187       4.11006485      -0.33855326        1 
H       3.72337179       0.75549443      -0.41302483        1 
H      -3.70189012      -1.64782765      -0.52039313        1 
H       1.42516297       3.35548093       0.87788463        1 
H       1.95459913       3.44334956      -0.83311998        1 
H       3.86540456      -0.28998526      -1.86104826        1 
H       4.01717837      -0.98760876      -0.21631120        1 
H      -2.04402616      -3.43789690      -0.22523850        1 
C      -3.36417228       1.02492600      -0.38487929        6 
C       0.62658850      -3.22597815       0.22703201        6 
H       1.42224900      -3.16687395      -0.52146933        1 
H       0.14610058      -4.20081763       0.12963833        1 
H       1.09854945      -3.17892671       1.21250625        1 
H      -3.05290031       1.82264925      -1.06362911        1 
H      -3.57291037       1.49169652       0.58043163        1 
H      -4.29047990       0.59467879      -0.77016567        1 
