30
Lattice="0.0 0.0 0.0 0.0 0.0 0.0 0.0 0.0 0.0" Properties=species:S:1:pos:R:3:Z:I:1 pbc="F F F"
C       0.92785713      -0.31252878       0.08003966        6 
C       0.03920712       0.76237398      -0.10959148        6 
C       0.47403257      -1.71871635      -0.17283533        6 
C      -1.45254616       0.57302881      -0.20235422        6 
O      -0.81520874      -1.92703741       0.16415315        8 
O       1.15681661      -2.57522221      -0.68533244        8 
O      -1.99231659       0.42937821       1.02193808        8 
O      -2.10411259       0.70354049      -1.21047321        8 
C      -3.42100785       0.27076562       1.06275174        6 
C      -1.37473641      -3.19962777      -0.20786677        6 
C       2.30056887      -0.07085358       0.29757709        6 
C       2.72730206       1.25691744       0.32513035        6 
C       1.84977776       2.31135677       0.09979746        6 
C       0.49005321       2.08989461      -0.11643812        6 
H      -3.91881681       1.13281357       0.61579628        1 
H      -1.31293012      -3.34039970      -1.28780803        1 
H       2.22443608       3.32943568       0.10578784        1 
H      -3.71526177      -0.63151280       0.52356319        1 
H      -3.67276525       0.18437495       2.11738942        1 
H      -2.41293890      -3.16186027       0.11495898        1 
H      -0.84626883      -4.01096863       0.29426406        1 
H       3.77449298       1.46674968       0.51379244        1 
C      -0.46033148       3.24301120      -0.33448974        6 
C       3.30857910      -1.17487614       0.50911710        6 
H       2.93246985      -1.95072098       1.17873508        1 
H       4.22606843      -0.76555001       0.93625345        1 
H       3.55107950      -1.67018253      -0.43331585        1 
H      -1.27348399       3.23419244       0.39811922        1 
H      -0.91928625       3.19402939      -1.32483487        1 
H       0.06237430       4.19612637      -0.24311122        1 
