30
Lattice="0.0 0.0 0.0 0.0 0.0 0.0 0.0 0.0 0.0" Properties=species:S:1:pos:R:3:Z:I:1 pbc="F F F"
C       0.02677742      -0.76078988       0.14048384        6 
C      -0.87298237       0.29689970      -0.14167761        6 
C       1.52067189      -0.59334231       0.07912078        6 
C      -0.49812609       1.71605354       0.17923582        6 
O       1.88581919      -0.14146057      -1.13762424        8 
O       2.30955251      -1.01431292       0.89169366        8 
O       0.82552320       1.96142376       0.12827801        8 
O      -1.28837280       2.54702974       0.56751853        8 
C       1.24816566       3.24561841       0.61865590        6 
C       3.29673946       0.01218432      -1.35221323        6 
C      -0.42667253      -2.08968065       0.22579923        6 
C      -1.77866625      -2.33368589      -0.02893314        6 
C      -2.64525787      -1.31170294      -0.38104589        6 
C      -2.22992057       0.02105053      -0.41553884        6 
H       0.80260859       4.04639545       0.02731971        1 
H       3.70296130       0.75950030      -0.66755358        1 
H      -3.67938235      -1.54504100      -0.61130648        1 
H       0.96025005       3.36658731       1.66396443        1 
H       2.33114035       3.24964739       0.51653967        1 
H       3.39846290       0.34497042      -2.38285490        1 
H       3.81713569      -0.93452461      -1.19870651        1 
H      -2.14792458      -3.35256548       0.02288978        1 
C      -3.25946441       1.07756741      -0.74121712        6 
C       0.48551213      -3.25659518       0.52810859        6 
H       1.28521569      -3.34614862      -0.21250033        1 
H      -0.08392906      -4.18757439       0.52089267        1 
H       0.96625496      -3.14798697       1.50096702        1 
H      -2.85605903       1.87125930      -1.37040510        1 
H      -3.63008152       1.55680100       0.16735862        1 
H      -4.10370703       0.61772870      -1.26032308        1 
