30
Lattice="0.0 0.0 0.0 0.0 0.0 0.0 0.0 0.0 0.0" Properties=species:S:1:pos:R:3:Z:I:1 pbc="F F F"
C       0.81432855       0.41447394       0.05720855        6 
C      -0.57613503       0.54727227       0.16612617        6 
C       1.46629937      -0.91251771       0.34056237        6 
C      -1.39812220      -0.70226268       0.29222996        6 
O       1.53924342      -1.67478313      -0.77067128        8 
O       1.83981455      -1.26711711       1.42758553        8 
O      -2.33276119      -0.76704828      -0.68061565        8 
O      -1.25832077      -1.55623949       1.13340947        8 
C      -3.20282741      -1.91403768      -0.64777196        6 
C       2.05822522      -3.00738328      -0.58236140        6 
C       1.63304259       1.52642895      -0.17724896        6 
C       1.01576363       2.77208596      -0.28640889        6 
C      -0.36236671       2.91093591      -0.14834939        6 
C      -1.18989060       1.80771860       0.06189039        6 
H      -2.62532120      -2.83420511      -0.74664901        1 
H       3.07947890      -2.96890820      -0.20088620        1 
H      -0.80613088       3.89868271      -0.21236678        1 
H      -3.76400860      -1.94199065       0.28778338        1 
H      -3.87436892      -1.79040240      -1.49453233        1 
H       2.03256214      -3.46900063      -1.56701254        1 
H       1.42994259      -3.55640215       0.12050407        1 
H       1.62477676       3.65159060      -0.46667386        1 
C      -2.68481313       1.99108298       0.18448605        6 
C       3.12917365       1.36979879      -0.29232842        6 
H       3.55886046       1.00601076       0.64554578        1 
H       3.60431488       2.32100817      -0.53677313        1 
H       3.39078090       0.64990259      -1.07350449        1 
H      -3.10501797       1.37346165       0.98179749        1 
H      -3.19171394       1.71132759      -0.74231669        1 
H      -2.92320672       3.03296845       0.40618117        1 
