30
Lattice="0.0 0.0 0.0 0.0 0.0 0.0 0.0 0.0 0.0" Properties=species:S:1:pos:R:3:Z:I:1 pbc="F F F"
C       0.47856331      -0.57844264       0.00540678        6 
C      -0.89691849      -0.26431965       0.11389538        6 
C       1.44059779       0.52849489       0.30979952        6 
C      -1.37154639       1.16186029       0.14160814        6 
O       2.68436228       0.30673765      -0.15955446        8 
O       1.14255482       1.54419733       0.89678531        8 
O      -0.90443746       1.84486795      -0.92407537        8 
O      -2.18561812       1.60352865       0.91482376        8 
C      -1.23933091       3.24234203      -0.96077415        6 
C       3.65133229       1.33565410       0.11673078        6 
C       0.88657840      -1.92042967      -0.16383237        6 
C      -0.11373345      -2.89487410      -0.24013680        6 
C      -1.45826282      -2.57815338      -0.13363704        6 
C      -1.88422482      -1.25970167       0.04254295        6 
H      -2.32108812       3.38083875      -0.93732885        1 
H       3.35124978       2.27405372      -0.35155312        1 
H      -2.19930704      -3.36846202      -0.19373317        1 
H      -0.78760548       3.75118894      -0.10734978        1 
H      -0.82377306       3.61609410      -1.89413177        1 
H       4.58488942       0.97457370      -0.30922701        1 
H       3.75044255       1.48789467       1.19242577        1 
H       0.17682924      -3.93185274      -0.36962502        1 
C      -3.36393677      -0.96357747       0.12494776        6 
C       2.32182474      -2.38986206      -0.24026515        6 
H       2.83081767      -1.98652361      -1.11688067        1 
H       2.34721309      -3.47973562      -0.29564311        1 
H       2.90056724      -2.07941434       0.63149026        1 
H      -3.67066756      -0.21796801      -0.61333382        1 
H      -3.63395268      -0.56589950       1.10454136        1 
H      -3.93928146      -1.87359026      -0.05494380        1 
