30
Lattice="0.0 0.0 0.0 0.0 0.0 0.0 0.0 0.0 0.0" Properties=species:S:1:pos:R:3:Z:I:1 pbc="F F F"
C       0.88782923      -0.36786780      -0.06657609        6 
C       0.07952503       0.77092787       0.13963456        6 
C       0.33368523      -1.74805273       0.12054373        6 
C      -1.42472155       0.70809236       0.18454192        6 
O      -1.01513292      -1.78401873       0.11297819        8 
O       0.99712792      -2.73929236       0.32658137        8 
O      -1.92449032       0.51902100      -1.05270366        8 
O      -2.10250577       0.96568661       1.14911934        8 
C      -3.35729415       0.45715193      -1.14804723        6 
C      -1.62505164      -3.05204881       0.40729671        6 
C       2.27711054      -0.21796572      -0.28000666        6 
C       2.79951363       1.07680679      -0.26226530        6 
C       2.00271693       2.18627368      -0.01526780        6 
C       0.62735175       2.06071013       0.18110235        6 
H      -3.73566790      -0.39049912      -0.57349189        1 
H      -1.36076775      -3.78748622      -0.35404725        1 
H       2.45155538       3.17364106       0.00660264        1 
H      -3.81107196       1.37539877      -0.77206549        1 
H      -3.57258081       0.32669853      -2.20632297        1 
H      -2.69634465      -2.86332553       0.40281121        1 
H      -1.30305401      -3.41320886       1.38482600        1 
H       3.86103453       1.21282273      -0.43769668        1 
C      -0.23362358       3.28247154       0.40122792        6 
C       3.22094460      -1.36835037      -0.53791651        6 
H       3.39162295      -1.95480312       0.36721995        1 
H       4.17936886      -0.98377392      -0.89229144        1 
H       2.82636655      -2.06334105      -1.28051557        1 
H      -0.71161685       3.25775267       1.38280605        1 
H      -1.03304759       3.34700460      -0.34313370        1 
H       0.36594441       4.19093536       0.32839943        1 
