30
Lattice="0.0 0.0 0.0 0.0 0.0 0.0 0.0 0.0 0.0" Properties=species:S:1:pos:R:3:Z:I:1 pbc="F F F"
C       0.85843017       0.34536404      -0.15263102        6 
C      -0.53338135       0.50581432       0.06001530        6 
C       1.49084801      -1.02044419      -0.11591758        6 
C      -1.38012498      -0.69632702      -0.24955111        6 
O       1.19802270      -1.64391249       1.04484018        8 
O       2.30925896      -1.42893940      -0.90387146        8 
O      -2.70604807      -0.46586610      -0.15838573        8 
O      -0.94632173      -1.78342390      -0.56049477        8 
C      -3.56263154      -1.58023089      -0.46669614        6 
C       1.65823896      -3.00050686       1.15767013        6 
C       1.72917435       1.44150878      -0.19102085        6 
C       1.17476770       2.70766873       0.01702111        6 
C      -0.17562162       2.86971635       0.28117671        6 
C      -1.06854070       1.79189145       0.29290228        6 
H      -3.40072759      -1.91428777      -1.49239366        1 
H       1.16014240      -3.61826018       0.40797234        1 
H      -0.56237321       3.86607376       0.46522380        1 
H      -3.37045003      -2.40988941       0.21496551        1 
H      -4.57609029      -1.20512992      -0.34004516        1 
H       1.37944516      -3.31924780       2.15997351        1 
H       2.73882602      -3.05754867       1.02107164        1 
H       1.82205429       3.57774333      -0.00474277        1 
C      -2.52520879       2.10358902       0.55436483        6 
C       3.21456896       1.29430568      -0.41687371        6 
H       3.66985007       0.62588681       0.31883302        1 
H       3.70688336       2.26547347      -0.34458894        1 
H       3.42214698       0.86426938      -1.39796359        1 
H      -2.94700910       1.46298518       1.32878320        1 
H      -3.13533684       1.95785126      -0.33957308        1 
H      -2.62360769       3.14374279       0.87078748        1 
