30
Lattice="0.0 0.0 0.0 0.0 0.0 0.0 0.0 0.0 0.0" Properties=species:S:1:pos:R:3:Z:I:1 pbc="F F F"
C       0.30084473      -0.61117913      -0.04935146        6 
C      -0.97434563       0.00109336       0.14631378        6 
C       1.50796584       0.13258998       0.45562690        6 
C      -1.14625470       1.48150386      -0.07029419        6 
O       2.65335827      -0.22671604      -0.16337290        8 
O       1.47029541       0.98699462       1.30741403        8 
O      -0.04862117       2.05302395      -0.60602570        8 
O      -2.19847390       2.07800906      -0.00160669        8 
C      -0.15741912       3.44661859      -0.92946814        6 
C       3.84312017       0.44029410       0.29245200        6 
C       0.39595698      -1.99301106      -0.30164407        6 
C      -0.79188479      -2.73702859      -0.32264848        6 
C      -2.01418803      -2.15949964      -0.04571758        6 
C      -2.14536408      -0.78164509       0.17372063        6 
H      -0.93671624       3.60767512      -1.67633168        1 
H       3.76484766       1.51455104       0.11887394        1 
H      -2.90414456      -2.77906181      -0.02391338        1 
H      -0.38945476       4.02932085      -0.03666960        1 
H       0.81704870       3.72590879      -1.32449236        1 
H       4.65540854       0.01449567      -0.29281545        1 
H       3.99935583       0.26148302       1.35734946        1 
H      -0.73846265      -3.80288308      -0.51705554        1 
C      -3.54021015      -0.24577985       0.39713246        6 
C       1.68980972      -2.75203147      -0.50349014        6 
H       2.25660400      -2.36185108      -1.34872988        1 
H       1.47068248      -3.80575925      -0.68549764        1 
H       2.34114517      -2.68816081       0.37076966        1 
H      -3.88734424       0.34124608      -0.45621465        1 
H      -3.59101305       0.41451785       1.26199969        1 
H      -4.22917698      -1.08024106       0.54680236        1 
