30
Lattice="0.0 0.0 0.0 0.0 0.0 0.0 0.0 0.0 0.0" Properties=species:S:1:pos:R:3:Z:I:1 pbc="F F F"
C       0.68917866       0.46243321      -0.10754636        6 
C      -0.68951410       0.46447064       0.13601961        6 
C       1.36774112      -0.87171644      -0.20076265        6 
C      -1.40769493      -0.84752874       0.29728177        6 
O       2.37864056      -0.99009622       0.67781486        8 
O       1.04507821      -1.74631238      -0.97045579        8 
O      -2.15928542      -1.12891074      -0.77864854        8 
O      -1.35431083      -1.53815876       1.28660749        8 
C      -2.87100732      -2.38185886      -0.74295558        6 
C       3.06137678      -2.26003592       0.67991249        6 
C       1.39414468       1.66529187      -0.26348731        6 
C       0.66616105       2.85279051      -0.16953104        6 
C      -0.70186948       2.85167198       0.08861701        6 
C      -1.41161327       1.66002183       0.23908908        6 
H      -2.16459964      -3.20955671      -0.66904958        1 
H       2.36980388      -3.05609705       0.95917892        1 
H      -1.23178119       3.79524298       0.16677264        1 
H      -3.55553320      -2.40986809       0.10636722        1 
H      -3.41865431      -2.42796228      -1.68139182        1 
H       3.85184038      -2.16070912       1.42012917        1 
H       3.47715102      -2.47226555      -0.30604976        1 
H       1.18231909       3.79795843      -0.30001018        1 
C      -2.89950452       1.65752034       0.49632516        6 
C       2.87684235       1.69021067      -0.54395027        6 
H       3.44766172       1.41300477       0.34554400        1 
H       3.19128690       2.68615623      -0.86022886        1 
H       3.14758020       0.98469693      -1.33428551        1 
H      -3.15651281       1.02415607       1.35040428        1 
H      -3.44475971       1.27236652      -0.36998881        1 
H      -3.26042856       2.66580780       0.70540998        1 
