30
Lattice="0.0 0.0 0.0 0.0 0.0 0.0 0.0 0.0 0.0" Properties=species:S:1:pos:R:3:Z:I:1 pbc="F F F"
C       0.15259381      -0.71336045       0.06618234        6 
C      -1.00671737       0.08754753       0.02963589        6 
C       1.49047835      -0.09613148       0.36298370        6 
C      -0.90000960       1.57747090       0.07793321        6 
O       2.36455122      -0.30447822      -0.63858195        8 
O       1.76659681       0.47294684       1.39076513        8 
O       0.21376502       2.01536255      -0.54838533        8 
O      -1.71894072       2.32298219       0.56133974        8 
C       0.47313448       3.42661563      -0.46414154        6 
C       3.69195794       0.21016018      -0.43045910        6 
C       0.07099730      -2.11162704      -0.02369601        6 
C      -1.19578620      -2.67874831      -0.17299977        6 
C      -2.33903315      -1.89405518      -0.22106208        6 
C      -2.27991216      -0.50281538      -0.11460749        6 
H      -0.34356532       3.99306038      -0.91364478        1 
H       3.66190976       1.29313378      -0.30142491        1 
H      -3.30595674      -2.37050860      -0.34227040        1 
H       0.59160193       3.72507602       0.57854627        1 
H       1.39751345       3.58357752      -1.01577621        1 
H       4.24883212      -0.05391031      -1.32666612        1 
H       4.14396425      -0.24370596       0.45306045        1 
H      -1.28665553      -3.75766122      -0.24452673        1 
C      -3.56619280       0.28599988      -0.17533605        6 
C       1.28731852      -3.00461780       0.05403951        6 
H       1.90296581      -2.91177696      -0.84362384        1 
H       0.98613443      -4.04848043       0.15722296        1 
H       1.91992093      -2.75502147       0.91047216        1 
H      -3.51320086       1.10369996      -0.89705878        1 
H      -3.79593180       0.74137077       0.78980842        1 
H      -4.39167927      -0.37047597      -0.45744486        1 
