30
Lattice="0.0 0.0 0.0 0.0 0.0 0.0 0.0 0.0 0.0" Properties=species:S:1:pos:R:3:Z:I:1 pbc="F F F"
C       0.12566936      -0.71221648       0.06237119        6 
C      -1.00897227       0.12629821       0.03184447        6 
C       1.49205463      -0.16036430       0.36616066        6 
C      -0.85855101       1.61280232       0.04470390        6 
O       2.33217676      -0.32299592      -0.67220190        8 
O       1.81622982       0.30428696       1.43122150        8 
O       0.34504510       1.99862755      -0.43168493        8 
O      -1.71319815       2.40378862       0.37091127        8 
C       0.62305735       3.40750349      -0.38841086        6 
C       3.68583163       0.11475924      -0.45864607        6 
C       0.00260536      -2.10668289      -0.03000006        6 
C      -1.28013426      -2.63814703      -0.17087502        6 
C      -2.39990633      -1.82062281      -0.20455299        6 
C      -2.30100700      -0.43112000      -0.10093531        6 
H      -0.11373624       3.96000422      -0.97292237        1 
H       3.70979783       1.18579597      -0.25162646        1 
H      -3.38160921      -2.26843944      -0.31441523        1 
H       0.60918716       3.76363593       0.64275332        1 
H       1.61592299       3.51870284      -0.81871214        1 
H       4.21210534      -0.10836178      -1.38406640        1 
H       4.13363533      -0.42192640       0.37935626        1 
H      -1.40175469      -3.71381966      -0.24582321        1 
C      -3.57241089       0.38205318      -0.15323809        6 
C       1.19601240      -3.03127950       0.03460641        6 
H       1.81889872      -2.93435530      -0.85773757        1 
H       0.86904592      -4.06943503       0.11303748        1 
H       1.82844817      -2.81556750       0.90049731        1 
H      -3.52867259       1.16437104      -0.91353251        1 
H      -3.76004698       0.88820837       0.79528346        1 
H      -4.41863972      -0.27133694      -0.37509757        1 
