30
Lattice="0.0 0.0 0.0 0.0 0.0 0.0 0.0 0.0 0.0" Properties=species:S:1:pos:R:3:Z:I:1 pbc="F F F"
C       0.95519394       0.22243699       0.09662057        6 
C      -0.39720121       0.62396858       0.01785938        6 
C       1.31150113      -1.23633321       0.11427281        6 
C      -1.43347902      -0.41209497       0.34019831        6 
O       0.65933221      -1.90479146      -0.86200893        8 
O       2.15688456      -1.73804424       0.81387663        8 
O      -2.60958470      -0.19617921      -0.28273148        8 
O      -1.24321945      -1.36684228       1.05820140        8 
C      -3.65196139      -1.15090764      -0.01263975        6 
C       0.81869728      -3.33375024      -0.85865040        6 
C       2.00023354       1.15217270       0.00569351        6 
C       1.65030712       2.49573214      -0.15409976        6 
C       0.32463142       2.89692305      -0.22513707        6 
C      -0.73119731       1.98419821      -0.13258380        6 
H      -3.36261470      -2.14007349      -0.37072676        1 
H       1.87197715      -3.60758579      -0.93224975        1 
H       0.09597975       3.95070411      -0.34110426        1 
H      -3.85697845      -1.20290367       1.05750730        1 
H      -4.52247118      -0.78749095      -0.55463247        1 
H       0.26813245      -3.68900213      -1.72723986        1 
H       0.39676033      -3.74818030       0.05894730        1 
H       2.43662163       3.23929362      -0.22813837        1 
C      -2.14641894       2.51696469      -0.16503368        6 
C       3.45567482       0.75266696       0.05192394        6 
H       3.71952948       0.34086962       1.02754753        1 
H       4.09074391       1.61657428      -0.15074461        1 
H       3.68585522      -0.02118564      -0.68491934        1 
H      -2.73066720       2.17684368       0.69244995        1 
H      -2.67713356       2.18523561      -1.05893215        1 
H      -2.13245141       3.60827257      -0.15466687        1 
