30
Lattice="0.0 0.0 0.0 0.0 0.0 0.0 0.0 0.0 0.0" Properties=species:S:1:pos:R:3:Z:I:1 pbc="F F F"
C       0.63376288       0.41995769      -0.07861505        6 
C      -0.74880979       0.42397726       0.19850482        6 
C       1.34810071      -0.88863084       0.10035605        6 
C      -1.55733951      -0.84682196       0.26554270        6 
O       2.61604760      -0.72831097       0.53332638        8 
O       0.86136418      -1.98303624      -0.06811035        8 
O      -1.68421354      -1.38815867      -0.95729711        8 
O      -2.17567532      -1.21828822       1.23449423        8 
C      -2.41718305      -2.62413369      -1.02767445        6 
C       3.35546176      -1.94148223       0.76646960        6 
C       1.30680891       1.62867424      -0.35070026        6 
C       0.55664988       2.80641503      -0.31436269        6 
C      -0.79388291       2.80684267       0.00927133        6 
C      -1.48069840       1.61840234       0.25903237        6 
H      -1.88154067      -3.40088027      -0.47950066        1 
H       2.86577401      -2.54311171       1.53341757        1 
H      -1.33553974       3.74629786       0.04322493        1 
H      -3.41810767      -2.50492244      -0.61053633        1 
H      -2.46642761      -2.87069896      -2.08596320        1 
H       4.33899360      -1.61842389       1.10047511        1 
H       3.43169011      -2.52543891      -0.15198082        1 
H       1.04800890       3.74685388      -0.53889772        1 
C      -2.96409118       1.63582625       0.54668454        6 
C       2.77131769       1.72002390      -0.71178936        6 
H       3.40430409       1.63457566       0.17376120        1 
H       2.97403609       2.68099259      -1.18864744        1 
H       3.07346629       0.92746353      -1.39795457        1 
H      -3.17961968       1.24074902       1.54145149        1 
H      -3.51635723       1.01786942      -0.16791152        1 
H      -3.35252542       2.65321210       0.48207897        1 
