30
Lattice="0.0 0.0 0.0 0.0 0.0 0.0 0.0 0.0 0.0" Properties=species:S:1:pos:R:3:Z:I:1 pbc="F F F"
C       0.10574254      -0.70889352       0.04631078        6 
C      -1.00577928       0.16515002       0.04883134        6 
C       1.49292541      -0.22738710       0.38019210        6 
C      -0.81675686       1.64773159      -0.00416824        6 
O       2.33437251      -0.37505137      -0.66002958        8 
O       1.82675324       0.17152330       1.46792627        8 
O       0.45964308       1.98839683      -0.28113198        8 
O      -1.69552564       2.47456221       0.09177772        8 
C       0.74651500       3.39411891      -0.33705149        6 
C       3.70369473      -0.00869835      -0.41441266        6 
C      -0.05964984      -2.09781970      -0.06412184        6 
C      -1.35897141      -2.59346813      -0.18006399        6 
C      -2.45540154      -1.74621519      -0.16244296        6 
C      -2.31630401      -0.36022350      -0.05135485        6 
H       0.15980920       3.87148902      -1.12321555        1 
H       3.77197138       1.04620971      -0.14418525        1 
H      -3.45241924      -2.16563813      -0.24066452        1 
H       0.52087848       3.86637555       0.62001713        1 
H       1.80974493       3.46261124      -0.55649598        1 
H       4.22726940      -0.19990143      -1.34848749        1 
H       4.12194877      -0.61226177       0.39282872        1 
H      -1.51122094      -3.66416150      -0.26898113        1 
C      -3.57506259       0.47424385      -0.05965072        6 
C       1.10797023      -3.05740936      -0.03523014        6 
H       1.72812084      -2.95315383      -0.92847187        1 
H       0.75154742      -4.08749255       0.01660755        1 
H       1.75077901      -2.88396876       0.83244887        1 
H      -3.59571352       1.17137701      -0.89978926        1 
H      -3.66263831       1.08234622       0.84147690        1 
H      -4.44596984      -0.18090010      -0.12955176        1 
