30
Lattice="0.0 0.0 0.0 0.0 0.0 0.0 0.0 0.0 0.0" Properties=species:S:1:pos:R:3:Z:I:1 pbc="F F F"
C       0.71654156       0.39932274      -0.12535338        6 
C      -0.68996843       0.40087827      -0.06851424        6 
C       1.46376683      -0.90144203      -0.25096922        6 
C      -1.50345293      -0.83975182      -0.33392719        6 
O       2.38820065      -1.01236037       0.73499944        8 
O       1.26816997      -1.76952579      -1.06107173        8 
O      -2.24992481      -1.16291818       0.75021466        8 
O      -1.49898900      -1.48267139      -1.34901847        8 
C      -3.11048260      -2.30842663       0.59768930        6 
C       3.17002850      -2.22111105       0.72352505        6 
C       1.43636355       1.60408800      -0.02390222        6 
C       0.71403215       2.78706861       0.13252919        6 
C      -0.67260804       2.78533866       0.20991774        6 
C      -1.40186653       1.60131936       0.10775190        6 
H      -3.84897121      -2.12759771      -0.18560234        1 
H       2.52349924      -3.09471178       0.81936711        1 
H      -1.20335861       3.72382652       0.33005250        1 
H      -2.52662896      -3.19307056       0.34025111        1 
H      -3.59827271      -2.43421656       1.56178439        1 
H       3.83772969      -2.14128848       1.57847403        1 
H       3.73948324      -2.30010745      -0.20427790        1 
H       1.25064692       3.72803654       0.18939032        1 
C      -2.91303254       1.64133041       0.15052860        6 
C       2.94351338       1.66238633      -0.11302582        6 
H       3.40650842       1.34851105       0.82503666        1 
H       3.26777555       2.68075899      -0.33426257        1 
H       3.32994704       1.00877700      -0.89860454        1 
H      -3.29507951       1.21793776       1.08236922        1 
H      -3.35509769       1.06846483      -0.66965927        1 
H      -3.26830034       2.66968062       0.06840813        1 
