30
Lattice="0.0 0.0 0.0 0.0 0.0 0.0 0.0 0.0 0.0" Properties=species:S:1:pos:R:3:Z:I:1 pbc="F F F"
C       0.70613758       0.45047204      -0.04136427        6 
C      -0.69514009       0.45246582       0.08035508        6 
C       1.36627935      -0.88596039      -0.19533006        6 
C      -1.41312679      -0.84853889       0.31799122        6 
O       2.54065310      -0.97518357       0.45533265        8 
O       0.88571853      -1.80427951      -0.81882708        8 
O      -2.30768918      -1.11293221      -0.64923134        8 
O      -1.23179200      -1.55280701       1.28145105        8 
C      -3.02792213      -2.35344071      -0.51569325        6 
C       3.20518128      -2.25089954       0.37325047        6 
C       1.41495116       1.65947999      -0.15112322        6 
C       0.67543315       2.84505317      -0.11248815        6 
C      -0.70616874       2.84155488       0.03170091        6 
C      -1.42348310       1.64761715       0.13052185        6 
H      -2.33261740      -3.19328455      -0.54660245        1 
H       2.57244019      -3.03300761       0.79472825        1 
H      -1.24218517       3.78410347       0.06966835        1 
H      -3.58254713      -2.37580365       0.42373265        1 
H      -3.70693241      -2.38569526      -1.36482729        1 
H       4.11707348      -2.13817447       0.95524080        1 
H       3.43629575      -2.49540210      -0.66464614        1 
H       1.19794118       3.79120917      -0.20327440        1 
C      -2.92536750       1.66549342       0.29694489        6 
C       2.91228736       1.72731004      -0.33662210        6 
H       3.43622792       1.40854948       0.56641892        1 
H       3.21543067       2.74875135      -0.57253193        1 
H       3.25137488       1.07752330      -1.14702678        1 
H      -3.24726699       1.03354713       1.12956071        1 
H      -3.42415416       1.29386319      -0.60145732        1 
H      -3.27779603       2.67971838       0.49183157        1 
