30
Lattice="0.0 0.0 0.0 0.0 0.0 0.0 0.0 0.0 0.0" Properties=species:S:1:pos:R:3:Z:I:1 pbc="F F F"
C       0.49064639      -0.63469930      -0.14614998        6 
C      -0.86343210      -0.30042657      -0.02668966        6 
C       1.49379087       0.46503620      -0.33220878        6 
C      -1.31623990       1.10471341      -0.31050902        6 
O       2.29235265       0.57872215       0.74800804        8 
O       1.60046405       1.15145552      -1.31866427        8 
O      -1.12601938       1.91117455       0.75367898        8 
O      -1.75682833       1.47628965      -1.36732167        8 
C      -1.46135233       3.29947019       0.55233351        6 
C       3.31448387       1.59010041       0.66988224        6 
C       0.91404277      -1.96933360      -0.03444237        6 
C      -0.05983556      -2.94297013       0.18714039        6 
C      -1.40454474      -2.60931785       0.31329437        6 
C      -1.83565617      -1.28899744       0.19387437        6 
H      -0.87559287       3.71155437      -0.27043643        1 
H       3.97150035       1.40273142      -0.18081724        1 
H      -2.13590908      -3.39058496       0.49176636        1 
H      -2.52339267       3.40533453       0.32559527        1 
H      -1.21751556       3.79428559       1.48953844        1 
H       3.86369663       1.51869518       1.60581501        1 
H       2.86298536       2.57760821       0.56344763        1 
H       0.24231276      -3.98213633       0.26548209        1 
C      -3.30318475      -0.94305442       0.27676115        6 
C       2.36818926      -2.35696414      -0.15468356        6 
H       2.84178343      -1.88179362      -1.01831131        1 
H       2.46735745      -3.43740715      -0.27266539        1 
H       2.92923706      -2.05635606       0.73404791        1 
H      -3.67830926      -0.59751734      -0.69071041        1 
H      -3.48942605      -0.14660321       1.00307056        1 
H      -3.88962549      -1.81316496       0.57705626        1 
