30
Lattice="0.0 0.0 0.0 0.0 0.0 0.0 0.0 0.0 0.0" Properties=species:S:1:pos:R:3:Z:I:1 pbc="F F F"
C       0.14548672      -0.69919359      -0.02762987        6 
C      -1.01142465       0.11475668      -0.05249382        6 
C       1.49390709      -0.13415772      -0.38385828        6 
C      -0.89833240       1.60505111       0.00783082        6 
O       2.39228762      -0.31721761       0.60175660        8 
O       1.75388558       0.37479553      -1.44601967        8 
O       0.32989444       2.00241532       0.40329579        8 
O      -1.80401541       2.38886452      -0.16487550        8 
C       0.55416588       3.41970765       0.45648665        6 
C       3.72819052       0.13772403       0.32234908        6 
C       0.05068140      -2.09420719       0.08985545        6 
C      -1.22410610      -2.65356077       0.19960602        6 
C      -2.36238956      -1.86478242       0.16454525        6 
C      -2.29355363      -0.47424221       0.03955099        6 
H       0.41713440       3.86218708      -0.53125344        1 
H       4.13908892      -0.38959601      -0.54033285        1 
H      -3.33698905      -2.33452991       0.23992822        1 
H      -0.13275406       3.88895780       1.16217887        1 
H       1.58381088       3.53565019       0.78774451        1 
H       4.30361547      -0.08429722       1.21833702        1 
H       3.72915637       1.20972883       0.11980193        1 
H      -1.32328272      -3.73003843       0.29321143        1 
C      -3.59152974       0.29773676       0.02726209        6 
C       1.25952003      -3.00144580       0.06398893        6 
H       1.89930391      -2.79843175      -0.79954488        1 
H       0.94760518      -4.04558902       0.00639287        1 
H       1.87173856      -2.87395361       0.95932246        1 
H      -3.70596327       0.87761315      -0.88943103        1 
H      -3.64725033       1.01465882       0.84911519        1 
H      -4.43025620      -0.39609477       0.11350716        1 
