30
Lattice="0.0 0.0 0.0 0.0 0.0 0.0 0.0 0.0 0.0" Properties=species:S:1:pos:R:3:Z:I:1 pbc="F F F"
C       0.76026556       0.44384317       0.05273883        6 
C      -0.64970592       0.48300545       0.05962463        6 
C       1.51166236      -0.84025662       0.30548969        6 
C      -1.34569298      -0.84272148       0.08541163        6 
O       1.83377924      -1.45892338      -0.84480531        8 
O       1.83549560      -1.21977976       1.40179395        8 
O      -2.66932316      -0.76997457      -0.16306868        8 
O      -0.79254507      -1.90112452       0.28626236        8 
C      -3.37951511      -2.02149477      -0.16884258        6 
C       2.44480502      -2.75573189      -0.70386193        6 
C       1.52897214       1.60695197      -0.06396490        6 
C       0.85255699       2.82173262      -0.16367984        6 
C      -0.53462802       2.87599582      -0.12583456        6 
C      -1.32164313       1.72652438      -0.02050515        6 
H      -2.99405225      -2.67518869      -0.95263489        1 
H       3.37122329      -2.68605417      -0.13204720        1 
H      -1.02668439       3.84052802      -0.18342615        1 
H      -3.28199381      -2.52208762       0.79542150        1 
H      -4.41755830      -1.76036433      -0.36391817        1 
H       2.64270125      -3.09495078      -1.71832696        1 
H       1.75275229      -3.43125258      -0.19868633        1 
H       1.42130340       3.74077887      -0.25927088        1 
C      -2.82272988       1.90634033       0.01423853        6 
C       3.03716710       1.54817510      -0.06610680        6 
H       3.41551867       1.15298703       0.88086963        1 
H       3.46365760       2.54095388      -0.21609863        1 
H       3.40609052       0.89593749      -0.86256283        1 
H      -3.27387508       1.40178150       0.86980985        1 
H      -3.29871457       1.49471817      -0.87773873        1 
H      -3.06338873       2.96949851       0.07404091        1 
