30
Lattice="0.0 0.0 0.0 0.0 0.0 0.0 0.0 0.0 0.0" Properties=species:S:1:pos:R:3:Z:I:1 pbc="F F F"
C       0.26970631      -0.65273875       0.01252776        6 
C      -0.99115215      -0.01010594      -0.11229518        6 
C       1.49372206       0.10198133      -0.42427373        6 
C      -1.09934725       1.48109923       0.01302993        6 
O       2.57676657      -0.17389237       0.32974720        8 
O       1.51189533       0.88248495      -1.34526785        8 
O      -0.02259485       2.01126834       0.63327915        8 
O      -2.08662379       2.13666267      -0.23139767        8 
C      -0.03423347       3.43532040       0.81053945        6 
C       3.78900872       0.50257025      -0.04753741        6 
C       0.35236600      -2.04335815       0.20172893        6 
C      -0.84647373      -2.76241900       0.27093387        6 
C      -2.07322718      -2.14391496       0.11570889        6 
C      -2.18401880      -0.76061391      -0.06932596        6 
H      -0.03982184       3.93736498      -0.15857299        1 
H       4.08367376       0.22432823      -1.06087454        1 
H      -2.97818767      -2.74068944       0.15215860        1 
H      -0.91051328       3.74381739       1.38241583        1 
H       0.87996926       3.66576695       1.35342422        1 
H       4.53755852       0.17913220       0.67247121        1 
H       3.64965772       1.58339542      -0.00059385        1 
H      -0.80676177      -3.83651148       0.41870721        1 
C      -3.57158167      -0.17464778      -0.18559081        6 
C       1.65050547      -2.81564714       0.28243113        6 
H       2.28189797      -2.64465879      -0.59306610        1 
H       1.44098559      -3.88527219       0.33969304        1 
H       2.23534901      -2.52903842       1.15739637        1 
H      -3.69959065       0.37289713      -1.11979278        1 
H      -3.78087728       0.53718094       0.61577911        1 
H      -4.31227010      -0.97584394      -0.14083651        1 
