30
Lattice="0.0 0.0 0.0 0.0 0.0 0.0 0.0 0.0 0.0" Properties=species:S:1:pos:R:3:Z:I:1 pbc="F F F"
C       0.34698725      -0.58113946       0.06802026        6 
C      -0.96035024      -0.04615321      -0.15145783        6 
C       1.50228937       0.24095853      -0.43810182        6 
C      -1.22884514       1.41909322       0.07202665        6 
O       2.69656294      -0.13812198       0.06694037        8 
O       1.39230541       1.16843918      -1.20370578        8 
O      -0.21503948       2.02738117       0.72172905        8 
O      -2.30186447       1.96166690      -0.07434547        8 
C      -0.41494252       3.41070146       1.04464577        6 
C       3.83547046       0.60123376      -0.40651100        6 
C       0.51618956      -1.95378585       0.33444105        6 
C      -0.62820153      -2.76459083       0.33636162        6 
C      -1.87505542      -2.26280520       0.02587933        6 
C      -2.08222976      -0.89544294      -0.20262775        6 
H      -0.57926251       3.99472387       0.13759918        1 
H       3.92874955       0.51019393      -1.48985180        1 
H      -2.72603841      -2.93407445      -0.01255954        1 
H      -1.27162475       3.53123777       1.71009457        1 
H       0.50195381       3.72496715       1.53881172        1 
H       4.69472825       0.15756876       0.09211822        1 
H       3.73914435       1.65584168      -0.14472528        1 
H      -0.51737512      -3.82375894       0.54245636        1 
C      -3.50114619      -0.44247354      -0.45758451        6 
C       1.84077020      -2.64439979       0.57671791        6 
H       2.49021220      -2.59880398      -0.29985162        1 
H       1.66399210      -3.69517105       0.81406426        1 
H       2.38955862      -2.18809792       1.40024339        1 
H      -3.57367618       0.19031751      -1.34151872        1 
H      -3.89143630       0.14891628       0.37380697        1 
H      -4.14199308      -1.31671143      -0.59246356        1 
