30
Lattice="0.0 0.0 0.0 0.0 0.0 0.0 0.0 0.0 0.0" Properties=species:S:1:pos:R:3:Z:I:1 pbc="F F F"
C      -0.33764709      -0.72062113       0.14569965        6 
C      -0.70941482       0.63193991      -0.04210459        6 
C       1.09748149      -1.16891639       0.13130092        6 
C       0.29918530       1.72714137       0.09935073        6 
O       1.66353281      -0.91280740      -1.06759893        8 
O       1.63708843      -1.80390249       1.00338342        8 
O       1.46632533       1.27944016       0.61165532        8 
O       0.10123345       2.90253240      -0.11094227        8 
C       2.49341811       2.26010464       0.82277332        6 
C       3.03736767      -1.31169327      -1.20533518        6 
C      -1.29823197      -1.74195966       0.20479648        6 
C      -2.63915749      -1.37858861       0.06604029        6 
C      -3.01214584      -0.05986306      -0.13783661        6 
C      -2.07410890       0.97499608      -0.18885569        6 
H       2.78406598       2.71774378      -0.12433357        1 
H       3.66266296      -0.75240144      -0.50666113        1 
H      -4.06314738       0.18218583      -0.25112759        1 
H       2.14441929       3.03669106       1.50472724        1 
H       3.32593563       1.71291494       1.25964206        1 
H       3.30688669      -1.07574214      -2.23247630        1 
H       3.14946163      -2.37926324      -1.01169495        1 
H      -3.40159030      -2.14984658       0.10413966        1 
C      -2.58736133       2.38165960      -0.38032369        6 
C      -0.93630313      -3.19898521       0.38100125        6 
H      -0.23182929      -3.53710551      -0.38430796        1 
H      -1.83087540      -3.81997323       0.30890773        1 
H      -0.46470320      -3.37855611       1.34886626        1 
H      -2.15787124       2.85294059      -1.26534895        1 
H      -2.32800596       3.02483933       0.46303150        1 
H      -3.67431469       2.36360451      -0.48318715        1 
