30
Lattice="0.0 0.0 0.0 0.0 0.0 0.0 0.0 0.0 0.0" Properties=species:S:1:pos:R:3:Z:I:1 pbc="F F F"
C      -0.63593763      -0.65431823       0.07693348        6 
C      -0.43154959       0.73269614      -0.10002765        6 
C       0.50600930      -1.61539946      -0.02470748        6 
C       0.94926312       1.31899848      -0.07643936        6 
O       1.51109580      -1.12025818      -0.78182622        8 
O       0.51883654      -2.74376648       0.41011613        8 
O       1.59594999       0.97223469       1.05858610        8 
O       1.40373016       2.07393208      -0.90009627        8 
C       2.95398151       1.42929804       1.16705531        6 
C       2.65259276      -1.97347534      -0.95973475        6 
C      -1.94381980      -1.17429150       0.18750300        6 
C      -3.00563571      -0.26813639       0.11498331        6 
C      -2.79898927       1.08931659      -0.07561233        6 
C      -1.51290398       1.62326634      -0.18549364        6 
H       3.56063134       0.99354901       0.37058722        1 
H       3.12386903      -2.18558204       0.00176793        1 
H      -3.65358841       1.75507362      -0.13302358        1 
H       3.00133407       2.51682675       1.09955789        1 
H       3.29849049       1.08871147       2.14106293        1 
H       3.32779999      -1.41809377      -1.60692799        1 
H       2.35709773      -2.91351644      -1.42764816        1 
H      -4.01961691      -0.64486568       0.19527646        1 
C      -1.33121856       3.11031551      -0.37119062        6 
C      -2.26739569      -2.64184482       0.34873212        6 
H      -1.82735203      -3.24748413      -0.44656224        1 
H      -3.34990252      -2.78251992       0.33005367        1 
H      -1.87792303      -3.03904354       1.28722369        1 
H      -0.87026523       3.33237461      -1.33523889        1 
H      -0.68130174       3.53803092       0.39688770        1 
H      -2.29536771       3.61908405      -0.31847140        1 
