30
Lattice="0.0 0.0 0.0 0.0 0.0 0.0 0.0 0.0 0.0" Properties=species:S:1:pos:R:3:Z:I:1 pbc="F F F"
C       0.82422970       0.42805870      -0.11580522        6 
C      -0.56433661       0.42925446       0.13167216        6 
C       1.63072642      -0.83891299      -0.20874899        6 
C      -1.36385275      -0.85146596       0.10779330        6 
O       1.49880471      -1.59226844       0.88867387        8 
O       2.40891637      -1.08739594      -1.10220633        8 
O      -2.35425864      -0.74757595      -0.81254196        8 
O      -1.17834375      -1.85563363       0.74612343        8 
C      -3.22262726      -1.88808672      -0.93682189        6 
C       2.19227714      -2.85249757       0.89236817        6 
C       1.53126965       1.64015568      -0.22576648        6 
C       0.82336897       2.82716188      -0.03411698        6 
C      -0.53502110       2.82535217       0.25263167        6 
C      -1.26055830       1.63649930       0.32318566        6 
H      -2.65444178      -2.77209486      -1.22978164        1 
H       1.84329053      -3.47702619       0.06851510        1 
H      -1.04708669       3.76671742       0.42172896        1 
H      -3.73155550      -2.08680314       0.00817284        1 
H      -3.94035716      -1.62111442      -1.70948754        1 
H       1.94491155      -3.31085368       1.84669787        1 
H       3.26878738      -2.70019277       0.79968834        1 
H       1.35473906       3.77065583      -0.09629815        1 
C      -2.74160710       1.68980741       0.62609378        6 
C       3.01289101       1.69448213      -0.51504052        6 
H       3.58414772       1.06202401       0.16942343        1 
H       3.37682752       2.71821092      -0.41521392        1 
H       3.22966370       1.34007080      -1.52425530        1 
H      -3.05474266       0.88008347       1.28896974        1 
H      -3.33497016       1.60985144      -0.28792648        1 
H      -2.99102786       2.63446448       1.11338541        1 
