30
Lattice="0.0 0.0 0.0 0.0 0.0 0.0 0.0 0.0 0.0" Properties=species:S:1:pos:R:3:Z:I:1 pbc="F F F"
C       1.00416611      -0.10802744      -0.11339413        6 
C      -0.17018526       0.67985383       0.01572045        6 
C       0.94562282      -1.59877590       0.08079623        6 
C      -1.50038552       0.13455523      -0.43529266        6 
O      -0.31050431      -2.06943698       0.20556311        8 
O       1.90867822      -2.30940883       0.26850040        8 
O      -2.48387756       0.37394740       0.45788041        8 
O      -1.67441528      -0.45464710      -1.47188380        8 
C      -3.79341174      -0.09263784       0.08756498        6 
C      -0.44569906      -3.47119102       0.48461604        6 
C       2.27304188       0.50804361      -0.11076540        6 
C       2.32375597       1.89573868       0.05948101        6 
C       1.17929922       2.65017152       0.25040641        6 
C      -0.09158157       2.06879708       0.20573925        6 
H      -4.12856485       0.39173788      -0.83129557        1 
H       0.00208654      -4.06518110      -0.31336719        1 
H       1.26438555       3.72150111       0.39792421        1 
H      -3.78282087      -1.17327682      -0.06233404        1 
H      -4.44218214       0.17353517       0.91929523        1 
H      -1.51768816      -3.64979905       0.53608826        1 
H       0.03345289      -3.72240329       1.43221650        1 
H       3.29092572       2.38604673       0.05613556        1 
C      -1.30933511       2.96224125       0.30018814        6 
C       3.57978773      -0.23074662      -0.27601404        6 
H       3.83533413      -0.79730635       0.62174497        1 
H       4.37846227       0.48673865      -0.47653817        1 
H       3.54119684      -0.95305276      -1.09159265        1 
H      -1.89527822       2.74853261       1.19588568        1 
H      -1.97554371       2.83032947      -0.55664737        1 
H      -1.00474179       4.00963007       0.32669191        1 
