30
Lattice="0.0 0.0 0.0 0.0 0.0 0.0 0.0 0.0 0.0" Properties=species:S:1:pos:R:3:Z:I:1 pbc="F F F"
C       0.47786339      -0.49458347       0.08227032        6 
C      -0.89288954      -0.20734954      -0.18495337        6 
C       1.45349718       0.57285830      -0.33764125        6 
C      -1.43188061       1.18629768      -0.00484887        6 
O       2.74539071       0.19864348      -0.21414155        8 
O       1.14765818       1.66071611      -0.76822223        8 
O      -0.80534820       1.80931337       1.01628931        8 
O      -2.44985620       1.61578933      -0.49694227        8 
C      -1.24606036       3.14564532       1.29644871        6 
C       3.71945521       1.16012890      -0.65520421        6 
C       0.87939991      -1.81362322       0.37710307        6 
C      -0.10237936      -2.81336510       0.33996185        6 
C      -1.40724139      -2.54478653      -0.02427209        6 
C      -1.84580604      -1.23725265      -0.27158313        6 
H      -1.08895614       3.78353220       0.42471228        1 
H       3.57697671       1.39118051      -1.71189858        1 
H      -2.12274488      -3.35817581      -0.08247034        1 
H      -2.30335210       3.15643717       1.56687620        1 
H      -0.63333802       3.48260927       2.12984415        1 
H       4.68477688       0.68539989      -0.49212556        1 
H       3.63863925       2.08022466      -0.07476608        1 
H       0.18325870      -3.83340301       0.57348608        1 
C      -3.31108108      -1.02204956      -0.57145597        6 
C       2.28328657      -2.25460279       0.72723039        6 
H       2.92850559      -2.27565075      -0.15367356        1 
H       2.24924302      -3.26036571       1.15083109        1 
H       2.75423632      -1.58791819       1.44820291        1 
H      -3.45601099      -0.52265856      -1.52967449        1 
H      -3.79235262      -0.39102779       0.17924866        1 
H      -3.82683078      -1.98432377      -0.59423397        1 
