30
Lattice="0.0 0.0 0.0 0.0 0.0 0.0 0.0 0.0 0.0" Properties=species:S:1:pos:R:3:Z:I:1 pbc="F F F"
C       0.63680168       0.53455932      -0.15955191        6 
C      -0.75553309       0.42420513      -0.07057090        6 
C       1.44365817      -0.72086900      -0.32432246        6 
C      -1.44401271      -0.88589516      -0.34930793        6 
O       2.27817759      -0.90220097       0.72188485        8 
O       1.36346402      -1.48954916      -1.25016116        8 
O      -1.66735635      -1.57720748       0.78924112        8 
O      -1.74939873      -1.27898274      -1.44432311        8 
C      -2.31683775      -2.85580182       0.62940280        6 
C       3.10713071      -2.07960584       0.66764795        6 
C       1.26749643       1.78340975      -0.03544275        6 
C       0.45641061       2.89992638       0.16767892        6 
C      -0.92660724       2.78440770       0.27860077        6 
C      -1.56139179       1.54922412       0.15716729        6 
H      -3.31385622      -2.72496958       0.20563414        1 
H       2.48931891      -2.97857229       0.64567513        1 
H      -1.52502563       3.67323050       0.44918329        1 
H      -1.72912352      -3.49890146      -0.02685760        1 
H      -2.37775426      -3.27541711       1.63101229        1 
H       3.70886568      -2.05013046       1.57313575        1 
H       3.74193738      -2.05996751      -0.21952810        1 
H       0.91571911       3.87927264       0.24694123        1 
C      -3.06337264       1.42142127       0.24518876        6 
C       2.76650548       1.92602044      -0.13312320        6 
H       3.25434412       1.55625265       0.77222969        1 
H       3.04549116       2.97184079      -0.27171367        1 
H       3.16866163       1.35551808      -0.97464692        1 
H      -3.35519399       0.71466921       1.02750653        1 
H      -3.48413344       1.05818669      -0.69741351        1 
H      -3.52451495       2.38414189       0.47096079        1 
