30
Lattice="0.0 0.0 0.0 0.0 0.0 0.0 0.0 0.0 0.0" Properties=species:S:1:pos:R:3:Z:I:1 pbc="F F F"
C       0.71206136       0.42077271       0.00414359        6 
C      -0.70525936       0.41173385      -0.06028948        6 
C       1.45120563      -0.83679266      -0.37550932        6 
C      -1.36715151      -0.91413603       0.19521570        6 
O       2.47138661      -1.11051212       0.45987705        8 
O       1.15115381      -1.53376466      -1.31276146        8 
O      -2.67513126      -0.93858865      -0.13629089        8 
O      -0.79525590      -1.88931088       0.62321183        8 
C      -3.35232099      -2.19090037       0.07250540        6 
C       3.17817982      -2.33665287       0.19424079        6 
C       1.42796506       1.62345117       0.06822627        6 
C       0.69473961       2.81477691       0.09448565        6 
C      -0.68711329       2.81297737       0.01968784        6 
C      -1.42516523       1.62393927      -0.04271975        6 
H      -2.89491859      -2.97528196      -0.53196678        1 
H       2.49284506      -3.18307821       0.25658599        1 
H      -1.22024129       3.75735953       0.02748069        1 
H      -3.31061346      -2.47865835       1.12408145        1 
H      -4.38056284      -2.01638032      -0.23755776        1 
H       3.94334582      -2.40227529       0.96458201        1 
H       3.63076951      -2.31209378      -0.79841056        1 
H       1.22493856       3.75960738       0.14812989        1 
C      -2.93339253       1.74090728      -0.06281020        6 
C       2.93806564       1.68540789       0.06350054        6 
H       3.35681232       1.24890758       0.97199771        1 
H       3.27198778       2.72155096      -0.01094380        1 
H       3.36112843       1.13296456      -0.77935103        1 
H      -3.39166677       1.25462071       0.80078528        1 
H      -3.36233118       1.27180523      -0.94883777        1 
H      -3.21955372       2.79434276      -0.05276414        1 
