30
Lattice="0.0 0.0 0.0 0.0 0.0 0.0 0.0 0.0 0.0" Properties=species:S:1:pos:R:3:Z:I:1 pbc="F F F"
C       0.56296622       0.38279402       0.11523320        6 
C      -0.81468821       0.37370179      -0.23659941        6 
C       1.34829358      -0.86020789      -0.22998178        6 
C      -1.64378281      -0.87878352      -0.12386321        6 
O       2.63322684      -0.56512427      -0.53600407        8 
O       0.92449520      -1.98818964      -0.31039714        8 
O      -1.32744172      -1.55244062       0.99861756        8 
O      -2.63651460      -1.12307865      -0.77158436        8 
C      -2.04614601      -2.77412966       1.22555106        6 
C       3.44769027      -1.67791803      -0.94497530        6 
C       1.19914226       1.58480468       0.47192978        6 
C       0.44668041       2.76234265       0.39602137        6 
C      -0.85888266       2.76453014      -0.06346014        6 
C      -1.53249911       1.57535062      -0.36729117        6 
H      -3.12173964      -2.59342215       1.25463559        1 
H       3.49052630      -2.43318682      -0.15867533        1 
H      -1.39324794       3.70472917      -0.14850245        1 
H      -1.81780853      -3.49194141       0.43555113        1 
H      -1.69112258      -3.14326784       2.18529508        1 
H       4.43425077      -1.25848169      -1.13044041        1 
H       3.04527723      -2.13102104      -1.85229708        1 
H       0.91074834       3.69978330       0.68351546        1 
C      -2.98905804       1.64686116      -0.76406209        6 
C       2.62548901       1.68972261       0.96208886        6 
H       2.92764316       0.81738245       1.54050859        1 
H       2.72505834       2.57428535       1.59545148        1 
H       3.32695901       1.78420285       0.13018294        1 
H      -3.62829805       1.10417695      -0.06325203        1 
H      -3.16017803       1.19926638      -1.74364520        1 
H      -3.31397168       2.68857838      -0.78927413        1 
