30
Lattice="0.0 0.0 0.0 0.0 0.0 0.0 0.0 0.0 0.0" Properties=species:S:1:pos:R:3:Z:I:1 pbc="F F F"
C      -0.08861874      -0.80382526       0.11800180        6 
C      -0.87785804       0.34774933       0.01168262        6 
C       1.39785526      -0.71008729       0.32362833        6 
C      -0.28430784       1.69063133       0.32283073        6 
O       2.04252671      -0.63112949      -0.85396693        8 
O       1.95414018      -0.77674483       1.39264940        8 
O       0.63946498       2.05864036      -0.58559312        8 
O      -0.56430688       2.34560862       1.29654423        8 
C       1.33720120       3.28946848      -0.31266348        6 
C       3.47883503      -0.56069293      -0.78393039        6 
C      -0.65541861      -2.08310794      -0.00705232        6 
C      -2.02570231      -2.16487685      -0.24871317        6 
C      -2.81102008      -1.02156615      -0.35724410        6 
C      -2.26355248       0.25154987      -0.20842078        6 
H       0.63952918       4.12791795      -0.29371751        1 
H       3.78756877       0.32399489      -0.22483539        1 
H      -3.87403019      -1.12100517      -0.54998114        1 
H       1.85079442       3.22707169       0.64788055        1 
H       2.05000453       3.40205253      -1.12640088        1 
H       3.81488483      -0.49878661      -1.81642628        1 
H       3.88275270      -1.45069528      -0.29866932        1 
H      -2.48655287      -3.14117911      -0.35759529        1 
C      -3.14254398       1.47671001      -0.27949767        6 
C       0.18489635      -3.33092375       0.11915056        6 
H       1.03746622      -3.30968387      -0.56587655        1 
H      -0.40652971      -4.21921113      -0.10891335        1 
H       0.58165194      -3.43771192       1.13274768        1 
H      -2.75496117       2.21126035      -0.99144838        1 
H      -3.20362723       1.96993198       0.69356148        1 
H      -4.15240368       1.20633912      -0.59312891        1 
