30
Lattice="0.0 0.0 0.0 0.0 0.0 0.0 0.0 0.0 0.0" Properties=species:S:1:pos:R:3:Z:I:1 pbc="F F F"
C      -0.48129660      -0.69827166      -0.07669674        6 
C      -0.65059455       0.69407542       0.01584286        6 
C       0.88656344      -1.30833170      -0.19011222        6 
C       0.54440219       1.59114288       0.08566680        6 
O       1.59415491      -1.12936591       0.94454265        8 
O       1.30186066      -1.89780393      -1.15580740        8 
O       1.47121772       1.24350839      -0.83144494        8 
O       0.68266835       2.51073980       0.85606467        8 
C       2.71173259       1.96941495      -0.79290967        6 
C       2.94279536      -1.63336529       0.92875236        6 
C      -1.58693776      -1.56400693      -0.10585201        6 
C      -2.85708683      -0.99334112      -0.02984692        6 
C      -3.02861111       0.38297603       0.05981083        6 
C      -1.94032084       1.25538464       0.09332678        6 
H       2.54276954       3.02561612      -1.00750176        1 
H       2.94542251      -2.71390545       0.77777963        1 
H      -4.03250343       0.79138180       0.10482440        1 
H       3.17764061       1.87328674       0.18930230        1 
H       3.33286099       1.51687133      -1.56265216        1 
H       3.35744433      -1.38069138       1.90189227        1 
H       3.51333907      -1.15846391       0.12883599        1 
H      -3.72851440      -1.63969973      -0.04364121        1 
C      -2.17885438       2.74184908       0.19871735        6 
C      -1.42820268      -3.06224133      -0.21569951        6 
H      -1.02126515      -3.34377072      -1.18979685        1 
H      -2.39112054      -3.55954259      -0.08660583        1 
H      -0.74515393      -3.45391011       0.54362541        1 
H      -1.60210840       3.30084258      -0.54179179        1 
H      -1.88043542       3.11824409       1.17944880        1 
H      -3.23632181       2.96579277       0.04637894        1 
