30
Lattice="0.0 0.0 0.0 0.0 0.0 0.0 0.0 0.0 0.0" Properties=species:S:1:pos:R:3:Z:I:1 pbc="F F F"
C      -0.58207463      -0.62588225       0.13404108        6 
C      -0.36177767       0.75116667      -0.14983207        6 
C       0.49255872      -1.63772709      -0.15277552        6 
C       0.98641924       1.36783366       0.08168661        6 
O       1.61602982      -1.08522019      -0.66229085        8 
O       0.33844037      -2.83897955      -0.13088094        8 
O       1.57052816       0.82102915       1.17243826        8 
O       1.42523473       2.35008625      -0.46944464        8 
C       2.87309345       1.32276031       1.50288155        6 
C       2.62655107      -2.00397223      -1.10580407        6 
C      -1.89159532      -1.10660446       0.34151258        6 
C      -2.94636415      -0.19539882       0.20532782        6 
C      -2.73245788       1.11677018      -0.17283668        6 
C      -1.44041677       1.63098485      -0.34081320        6 
H       3.57106540       1.12951819       0.68533186        1 
H       2.98253367      -2.61332443      -0.27344879        1 
H      -3.58201849       1.77710141      -0.30972531        1 
H       2.83784812       2.39578529       1.69693561        1 
H       3.17390993       0.78062342       2.39686975        1 
H       3.42814819      -1.38076427      -1.49641492        1 
H       2.23395171      -2.65839744      -1.88566965        1 
H      -3.96032949      -0.54424952       0.36903416        1 
C      -1.28355151       3.09502696      -0.67597013        6 
C      -2.24478115      -2.53738000       0.67549066        6 
H      -2.12242734      -3.19066316      -0.19148109        1 
H      -3.28609858      -2.58660075       1.00237109        1 
H      -1.60854779      -2.94671728       1.45943452        1 
H      -0.74117904       3.23379526      -1.61183406        1 
H      -0.71881961       3.63099545       0.09040755        1 
H      -2.26671266       3.56096212      -0.76707951        1 
