30
Lattice="0.0 0.0 0.0 0.0 0.0 0.0 0.0 0.0 0.0" Properties=species:S:1:pos:R:3:Z:I:1 pbc="F F F"
C       0.71779274       0.47954771       0.14038883        6 
C      -0.65972008       0.46012586      -0.10767951        6 
C       1.43165950      -0.83361373       0.30171793        6 
C      -1.33564564      -0.87602663      -0.20960756        6 
O       2.19249198      -1.11471649      -0.76735918        8 
O       1.34393024      -1.54036203       1.27719332        8 
O      -2.32080264      -1.01013191       0.69602834        8 
O      -1.04630423      -1.72946584      -1.01503908        8 
C      -3.03409064      -2.26253439       0.67161879        6 
C       2.84922903      -2.39797767      -0.75367025        6 
C       1.41840146       1.68615897       0.25108446        6 
C       0.69001914       2.86726604       0.10262334        6 
C      -0.67726181       2.84952532      -0.15942462        6 
C      -1.38572347       1.65126068      -0.26029156        6 
H      -3.50110758      -2.41672022      -0.30244677        1 
H       3.50558635      -2.48509783       0.11337163        1 
H      -1.20831961       3.78723322      -0.28479076        1 
H      -2.35260522      -3.08808634       0.88032526        1 
H      -3.78746021      -2.17972638       1.45159856        1 
H       3.42128140      -2.43815660      -1.67762618        1 
H       2.10386148      -3.19413449      -0.72863125        1 
H       1.20436111       3.81867035       0.18796457        1 
C      -2.87057734       1.65385220      -0.53845283        6 
C       2.90224198       1.70220096       0.52178944        6 
H       3.15524940       1.07721490       1.38327332        1 
H       3.25063354       2.71547341       0.72732121        1 
H       3.45896459       1.31524192      -0.33618470        1 
H      -3.43624212       1.36951584       0.35229748        1 
H      -3.13399916       0.94471495      -1.32816249        1 
H      -3.20081496       2.64493548      -0.85430341        1 
