30
Lattice="0.0 0.0 0.0 0.0 0.0 0.0 0.0 0.0 0.0" Properties=species:S:1:pos:R:3:Z:I:1 pbc="F F F"
C       0.95081655      -0.28968208      -0.05795625        6 
C       0.02337723       0.75612942       0.10675009        6 
C       0.52755585      -1.71426393       0.12233736        6 
C      -1.45750325       0.51264818       0.24468292        6 
O      -0.77277479      -1.91260456      -0.18072688        8 
O       1.23981254      -2.60245391       0.53009778        8 
O      -2.04842203       0.45894328      -0.96334514        8 
O      -2.06223358       0.51996034       1.28913193        8 
C      -3.47288242       0.26134340      -0.95653375        6 
C      -1.31024745      -3.21180419       0.12201016        6 
C       2.31874029      -0.00035909      -0.25562937        6 
C       2.69851720       1.34192190      -0.28068262        6 
C       1.77982966       2.36691509      -0.08766257        6 
C       0.42523171       2.09858403       0.10483893        6 
H      -3.72057441      -0.68368971      -0.46984797        1 
H      -0.79184294      -3.98290635      -0.44920645        1 
H       2.11854325       3.39755597      -0.09705670        1 
H      -3.97313771       1.07592741      -0.43006702        1 
H      -3.76782023       0.24095962      -2.00329720        1 
H      -2.35861655      -3.16295232      -0.16428436        1 
H      -1.21311711      -3.42299913       1.18781780        1 
H       3.74156190       1.58703090      -0.44806514        1 
C      -0.57078001       3.21635141       0.30159581        6 
C       3.37175055      -1.06379961      -0.45510719        6 
H       3.57862697      -1.59442769       0.47618631        1 
H       4.29672300      -0.60714248      -0.81276539        1 
H       3.05737938      -1.81997354      -1.17707812        1 
H      -1.04096496       3.15582642       1.28652817        1 
H      -1.37126081       3.17273191      -0.44332432        1 
H      -0.08344730       4.18843330       0.21399255        1 
