30
Lattice="0.0 0.0 0.0 0.0 0.0 0.0 0.0 0.0 0.0" Properties=species:S:1:pos:R:3:Z:I:1 pbc="F F F"
C      -0.41465342      -0.70048276       0.10001179        6 
C      -0.71189494       0.67254546       0.02001216        6 
C       0.99722497      -1.19973380       0.24101549        6 
C       0.39137008       1.67865435      -0.04770613        6 
O       1.66041637      -1.10934068      -0.93007222        8 
O       1.47116270      -1.65165526       1.25193116        8 
O       1.42170638       1.34144820       0.75481071        8 
O       0.38643345       2.67418376      -0.73304439        8 
C       2.59081062       2.17418721       0.68027224        6 
C       3.03582790      -1.53493452      -0.90599667        6 
C      -1.43294179      -1.66675197       0.09602879        6 
C      -2.75114798      -1.22104807       0.01197170        6 
C      -3.05132731       0.13364325      -0.05815008        6 
C      -2.05127898       1.10649911      -0.06892629        6 
H       2.98109778       2.18851243      -0.33884993        1 
H       3.60425972      -0.93138106      -0.19643822        1 
H      -4.08837456       0.44769202      -0.11089898        1 
H       2.35459525       3.19332892       0.98929842        1 
H       3.30720032       1.72362843       1.36371999        1 
H       3.40267059      -1.38646516      -1.91898762        1 
H       3.10638026      -2.58556874      -0.62032392        1 
H      -3.55608793      -1.94871028       0.00391576        1 
C      -2.44569577       2.56065932      -0.16749353        6 
C      -1.12847770      -3.14372586       0.18573501        6 
H      -0.39742030      -3.45152565      -0.56760677        1 
H      -2.03423481      -3.73285106       0.03242739        1 
H      -0.71307423      -3.40025201       1.16361621        1 
H      -2.17784336       2.97409097      -1.14175504        1 
H      -1.94210701       3.17485237       0.58203086        1 
H      -3.52325467       2.66315628      -0.02721218        1 
