30
Lattice="0.0 0.0 0.0 0.0 0.0 0.0 0.0 0.0 0.0" Properties=species:S:1:pos:R:3:Z:I:1 pbc="F F F"
C       0.18961499      -0.66959976       0.01513522        6 
C      -1.00122404       0.09795769      -0.09743324        6 
C       1.50446532      -0.08305638      -0.42331091        6 
C      -0.96655539       1.58999681       0.06191098        6 
O       2.49894186      -0.34338763       0.44906398        8 
O       1.65924284       0.54180973      -1.44283087        8 
O       0.26302314       2.04880185       0.37019276        8 
O      -1.93798803       2.31309102       0.08068143        8 
C       0.37910911       3.46325105       0.58511519        6 
C       3.79925377       0.14679852       0.07819615        6 
C       0.13616913      -2.06256803       0.19109662        6 
C      -1.12376549      -2.66580160       0.25637269        6 
C      -2.28398798      -1.93014133       0.10152602        6 
C      -2.26082766      -0.54128394      -0.06809071        6 
H       0.06723502       4.01093262      -0.30522652        1 
H       4.11992877      -0.29382556      -0.86735221        1 
H      -3.24242200      -2.43716064       0.12566201        1 
H      -0.23396128       3.77368038       1.43276102        1 
H       1.43348681       3.63604569       0.78961541        1 
H       4.46344096      -0.15266532       0.88598613        1 
H       3.78007292       1.23295796      -0.02240185        1 
H      -1.18836784      -3.74003092       0.39415057        1 
C      -3.59064783       0.16435924      -0.19406521        6 
C       1.36154358      -2.94765185       0.25222031        6 
H       2.01969327      -2.79007651      -0.60611888        1 
H       1.06332932      -3.99746070       0.25349573        1 
H       1.95237539      -2.75542367       1.14956571        1 
H      -3.62404904       0.82083521      -1.06363614        1 
H      -3.79576282       0.79644978       0.67252258        1 
H      -4.38705755      -0.57787494      -0.28105703        1 
