30
Lattice="0.0 0.0 0.0 0.0 0.0 0.0 0.0 0.0 0.0" Properties=species:S:1:pos:R:3:Z:I:1 pbc="F F F"
C      -0.12165751      -0.75044130      -0.12051775        6 
C      -0.82530352       0.45369561       0.10916564        6 
C       1.38050261      -0.83705965      -0.11432852        6 
C      -0.20317920       1.77573568      -0.24139807        6 
O       1.86337759      -0.50937947       1.09841411        8 
O       2.05493451      -1.33075858      -0.98694099        8 
O       1.11250479       1.85633899       0.02996540        8 
O      -0.80236391       2.66122546      -0.80802055        8 
C       1.78260320       3.03570754      -0.45100732        6 
C       3.28808192      -0.61052103       1.25436537        6 
C      -0.79566556      -1.98541189      -0.15377924        6 
C      -2.16823540      -1.98393532       0.09986728        6 
C      -2.85048470      -0.81137390       0.38798372        6 
C      -2.21222225       0.42904917       0.36706496        6 
H       1.68794599       3.11090646      -1.53525602        1 
H       3.62444752      -1.63319658       1.07584009        1 
H      -3.91112169      -0.85336964       0.61188678        1 
H       1.36040139       3.92941914       0.01019083        1 
H       2.82416437       2.91126335      -0.16326234        1 
H       3.48831509      -0.31336889       2.28126489        1 
H       3.79397397       0.05821256       0.55544758        1 
H      -2.70591352      -2.92630726       0.09435555        1 
C      -3.03905524       1.66687662       0.62477152        6 
C      -0.09073346      -3.29656954      -0.41506861        6 
H       0.36074733      -3.31309938      -1.40846589        1 
H      -0.79790806      -4.12425015      -0.33884345        1 
H       0.71425225      -3.47629089       0.30334359        1 
H      -3.29908533       2.16671588      -0.31068797        1 
H      -2.51047137       2.39847029       1.23729959        1 
H      -3.96240657       1.39047962       1.13871386        1 
