30
Lattice="0.0 0.0 0.0 0.0 0.0 0.0 0.0 0.0 0.0" Properties=species:S:1:pos:R:3:Z:I:1 pbc="F F F"
C       0.92478751      -0.36405282      -0.03391138        6 
C       0.13884153       0.79812130      -0.10127926        6 
C       0.27760967      -1.70534991       0.13657404        6 
C      -1.35022996       0.73307003      -0.32066142        6 
O      -0.79807008      -1.86211723      -0.65850961        8 
O       0.64449727      -2.54809453       0.92190211        8 
O      -2.01404780       0.66982991       0.85248622        8 
O      -1.88744800       0.73030169      -1.39779792        8 
C      -3.44839971       0.56592578       0.75816811        6 
C      -1.55692699      -3.07091076      -0.48026466        6 
C       2.32900579      -0.27270403       0.03870991        6 
C       2.89719321       1.00081452       0.02652825        6 
C       2.11303496       2.14918037      -0.01831123        6 
C       0.72332261       2.07248665      -0.09008705        6 
H      -3.86251006       1.43448506       0.24388972        1 
H      -0.94943867      -3.94326277      -0.72563204        1 
H       2.58999154       3.12348621      -0.00924782        1 
H      -3.72597604      -0.33842747       0.21420571        1 
H      -3.80376025       0.52153894       1.78514006        1 
H      -2.39674323      -2.98473407      -1.16625334        1 
H      -1.90372454      -3.15448051       0.55108833        1 
H       3.97709446       1.09396900       0.06232884        1 
C      -0.13040458       3.31556423      -0.16644128        6 
C       3.21872669      -1.49055374       0.11616772        6 
H       3.14820481      -1.96678077       1.09601678        1 
H       4.25805014      -1.20966925      -0.06337408        1 
H       2.93855182      -2.24650638      -0.62132872        1 
H      -0.83040733       3.36794402       0.67305246        1 
H      -0.72078266       3.33188052      -1.08685723        1 
H       0.48781965       4.21406047      -0.14427697        1 
