30
Lattice="0.0 0.0 0.0 0.0 0.0 0.0 0.0 0.0 0.0" Properties=species:S:1:pos:R:3:Z:I:1 pbc="F F F"
C       0.56972682       0.39727205      -0.09905307        6 
C      -0.80759847       0.38223219       0.24809283        6 
C       1.34847769      -0.85141307       0.23289058        6 
C      -1.62409855      -0.88053076       0.15399352        6 
O       2.64984285      -0.58407327       0.48464069        8 
O       0.90262846      -1.96985959       0.33488209        8 
O      -1.34901462      -1.52870696      -0.99501383        8 
O      -2.58068871      -1.15027784       0.84344759        8 
C      -2.05910309      -2.75730418      -1.21269455        6 
C       3.45497613      -1.71257131       0.86919197        6 
C       1.20175830       1.60375685      -0.45221808        6 
C       0.43947160       2.77547357      -0.38567113        6 
C      -0.87295732       2.76936477       0.05517836        6 
C      -1.53908036       1.57655448       0.35876995        6 
H      -1.77336598      -3.48983051      -0.45545015        1 
H       3.06555613      -2.16517746       1.78222384        1 
H      -1.41636460       3.70554773       0.12651313        1 
H      -3.13748050      -2.59565438      -1.17588397        1 
H      -1.75361626      -3.09595129      -2.20040989        1 
H       4.45216810      -1.31026334       1.03435422        1 
H       3.46808930      -2.46302109       0.07705686        1 
H       0.89975396       3.71592172      -0.66914089        1 
C      -3.00290330       1.63107504       0.73087542        6 
C       2.63166325       1.71987446      -0.92913281        6 
H       3.32893154       1.76906928      -0.08997064        1 
H       2.74253709       2.63087323      -1.52141648        1 
H       2.92999860       0.87123799      -1.54410570        1 
H      -3.18466882       1.18743381       1.71024992        1 
H      -3.62161334       1.07535686       0.02133299        1 
H      -3.34372876       2.66781798       0.74252991        1 
