30
Lattice="0.0 0.0 0.0 0.0 0.0 0.0 0.0 0.0 0.0" Properties=species:S:1:pos:R:3:Z:I:1 pbc="F F F"
C       0.32952305      -0.64632114      -0.00916088        6 
C      -0.97713460      -0.10737866      -0.08858461        6 
C       1.47693150       0.24923067      -0.37285664        6 
C      -1.19434403       1.37542544      -0.06467483        6 
O       2.58079354       0.00825418       0.36114073        8 
O       1.42461311       1.10486640      -1.22468477        8 
O      -0.32173885       1.98522364       0.76663101        8 
O      -2.10963494       1.95602561      -0.59821879        8 
C      -0.39965143       3.41911161       0.81349780        6 
C       3.73253243       0.81049004       0.04461219        6 
C       0.52582353      -2.03129054       0.14342702        6 
C      -0.61221214      -2.83903934       0.23864636        6 
C      -1.88974362      -2.31124167       0.15748266        6 
C      -2.10875089      -0.93974482      -0.00581538        6 
H      -0.15694738       3.83778229      -0.16483417        1 
H       4.03350508       0.65509399      -0.99265364        1 
H      -2.74503226      -2.97483708       0.22720943        1 
H      -1.39957025       3.74032626       1.10811964        1 
H       0.33643295       3.72483231       1.55390530        1 
H       4.51271006       0.47717299       0.72535591        1 
H       3.51274577       1.86782465       0.19817261        1 
H      -0.48743384      -3.91002426       0.35789047        1 
C      -3.53174127      -0.43561616      -0.06231308        6 
C       1.88123452      -2.70160692       0.16510186        6 
H       2.49077914      -2.41767164      -0.69579568        1 
H       1.75794693      -3.78589283       0.14647443        1 
H       2.44704529      -2.43307218       1.05866503        1 
H      -3.76086045      -0.00419426      -1.03793207        1 
H      -3.71780034       0.34922462       0.67398025        1 
H      -4.22383538      -1.25785824       0.12974359        1 
