30
Lattice="0.0 0.0 0.0 0.0 0.0 0.0 0.0 0.0 0.0" Properties=species:S:1:pos:R:3:Z:I:1 pbc="F F F"
C      -0.01555150      -0.74949223      -0.11041510        6 
C      -0.91678021       0.31488674       0.09799239        6 
C       1.47685188      -0.56041753      -0.17938583        6 
C      -0.49365729       1.72642875      -0.17092711        6 
O       1.98525703      -0.36999042       1.05149753        8 
O       2.15284400      -0.73804228      -1.16394602        8 
O       0.79986560       1.95881626       0.12773093        8 
O      -1.20418404       2.56426038      -0.67720644        8 
C       1.32379456       3.23606632      -0.27706665        6 
C       3.41399744      -0.22901423       1.12417473        6 
C      -0.45966007      -2.08203046      -0.13434479        6 
C      -1.81571693      -2.32028976       0.08806804        6 
C      -2.70071645      -1.27992004       0.33667886        6 
C      -2.28685546       0.05192572       0.32139972        6 
H       1.22242533       3.36240494      -1.35586731        1 
H       3.90972581      -1.11628220       0.72712206        1 
H      -3.74436021      -1.50339460       0.53053853        1 
H       0.79716467       4.04363448       0.23293170        1 
H       2.37264172       3.22051771       0.01067980        1 
H       3.63889213      -0.10183066       2.18067043        1 
H       3.73573923       0.64524827       0.55552921        1 
H      -2.18042459      -3.34223040       0.08140562        1 
C      -3.31814822       1.13169660       0.54762061        6 
C       0.48317610      -3.23794998      -0.37247343        6 
H       0.92292210      -3.19135341      -1.37125028        1 
H      -0.04507147      -4.18748050      -0.27246730        1 
H       1.30947177      -3.23762695       0.34465867        1 
H      -3.59891831       1.60787420      -0.39413184        1 
H      -2.95018630       1.92465500       1.20054178        1 
H      -4.21325751       0.69951114       1.00001414        1 
