30
Lattice="0.0 0.0 0.0 0.0 0.0 0.0 0.0 0.0 0.0" Properties=species:S:1:pos:R:3:Z:I:1 pbc="F F F"
C       0.68856760       0.37178295      -0.04988155        6 
C      -0.72017128       0.32422090       0.13585604        6 
C       1.55133393      -0.79140895       0.37023614        6 
C      -1.40161630      -1.01549713      -0.02839473        6 
O       2.51856554      -1.06427231      -0.53625831        8 
O       1.37864529      -1.44335420       1.36531348        8 
O      -2.63297354      -0.86486915      -0.57948626        8 
O      -0.94324850      -2.10608980       0.19901060        8 
C      -3.36198786      -2.07907440      -0.82395345        6 
C       3.36688821      -2.18341627      -0.22059643        6 
C       1.33376747       1.60301026      -0.26851990        6 
C       0.55573926       2.76465267      -0.25764775        6 
C      -0.79933021       2.72282136       0.02073798        6 
C      -1.47335841       1.51196549       0.20458820        6 
H      -2.82376082      -2.71373962      -1.52971132        1 
H       3.90421488      -2.00736229       0.71292776        1 
H      -1.35909155       3.64958215       0.08783840        1 
H      -3.51502796      -2.63000248       0.10556627        1 
H      -4.31467883      -1.76251258      -1.24404801        1 
H       4.06225996      -2.26340377      -1.05349178        1 
H       2.77210713      -3.09287957      -0.12477053        1 
H       1.03810526       3.72243041      -0.42026943        1 
C      -2.95638047       1.57784941       0.50345512        6 
C       2.82872925       1.73547633      -0.45561031        6 
H       3.38356069       1.28571621       0.37180592        1 
H       3.10623216       2.78948290      -0.50980823        1 
H       3.16124380       1.23906401      -1.36831041        1 
H      -3.27683141       0.79320200       1.18799205        1 
H      -3.55273757       1.47580170      -0.40579731        1 
H      -3.18918238       2.54390435       0.95748963        1 
