30
Lattice="0.0 0.0 0.0 0.0 0.0 0.0 0.0 0.0 0.0" Properties=species:S:1:pos:R:3:Z:I:1 pbc="F F F"
C       0.74520058       0.45124756      -0.02967491        6 
C      -0.66493365       0.46683284      -0.07291644        6 
C       1.52099949      -0.81024851      -0.32164104        6 
C      -1.33908221      -0.87132759      -0.05688509        6 
O       1.94213457      -1.40966204       0.80640835        8 
O       1.76430510      -1.19912792      -1.43501758        8 
O      -2.65587073      -0.81219298       0.23123654        8 
O      -0.77742281      -1.92489083      -0.25714181        8 
C      -3.34810612      -2.07293845       0.27578028        6 
C       2.58609083      -2.68621479       0.62713020        6 
C       1.48947590       1.62909113       0.09992518        6 
C       0.78975207       2.83258485       0.17694199        6 
C      -0.59627912       2.86278830       0.09768229        6 
C      -1.35952407       1.69828320      -0.01805640        6 
H      -3.27066644      -2.58652887      -0.68346190        1 
H       1.89561136      -3.37902964       0.14399553        1 
H      -1.10709932       3.81878098       0.13206671        1 
H      -2.93150601      -2.70950629       1.05767792        1 
H      -4.38381439      -1.82297512       0.49627548        1 
H       2.83754220      -3.02736920       1.62896525        1 
H       3.48530707      -2.58270756       0.01781594        1 
H       1.34010379       3.76189715       0.28033226        1 
C      -2.86243737       1.84994152      -0.09385220        6 
C       2.99846590       1.59878729       0.12799574        6 
H       3.36666031       0.98962248       0.95779701        1 
H       3.40458084       2.60526009       0.23712101        1 
H       3.39833333       1.16908854      -0.79517089        1 
H      -3.35001402       1.47560984       0.80833469        1 
H      -3.28721623       1.29585504      -0.93184277        1 
H      -3.11815390       2.90468572      -0.21150926        1 
