30
Lattice="0.0 0.0 0.0 0.0 0.0 0.0 0.0 0.0 0.0" Properties=species:S:1:pos:R:3:Z:I:1 pbc="F F F"
C       0.99820400      -0.18779418       0.00650670        6 
C      -0.05073439       0.74453797      -0.08518635        6 
C       0.71629279      -1.65353490      -0.08604957        6 
C      -1.47086614       0.30668988      -0.32834789        6 
O      -0.51524439      -1.96364531       0.37571594        8 
O       1.48424326      -2.48891873      -0.50298268        8 
O      -2.21191537       0.40751234       0.78969441        8 
O      -1.91580430      -0.00124392      -1.40702737        8 
C      -3.60081533       0.05370195       0.65685045        6 
C      -0.93425297      -3.32901036       0.20751525        6 
C       2.32874486       0.25159324       0.17139807        6 
C       2.54909332       1.62844682       0.23782612        6 
C       1.50813012       2.54350305       0.13200173        6 
C       0.18829369       2.12383531      -0.03138142        6 
H      -4.09115839       0.69157434      -0.08031276        1 
H      -0.99036545      -3.57777356      -0.85332289        1 
H       1.72348799       3.60582963       0.17753990        1 
H      -3.69851955      -0.98868050       0.34879159        1 
H      -4.03342503       0.20321376       1.64349930        1 
H      -1.91893190      -3.38748011       0.66626278        1 
H      -0.23818034      -4.00638739       0.70344708        1 
H       3.56274378       1.98948920       0.37214315        1 
C      -0.93906151       3.12251980      -0.14656063        6 
C       3.50277876      -0.68928654       0.29688475        6 
H       3.32537702      -1.46141211       1.04858329        1 
H       4.39815491      -0.13193619       0.57801124        1 
H       3.69256531      -1.21278925      -0.64174322        1 
H      -1.60449338       3.06479207       0.71922442        1 
H      -1.54564510       2.93832196      -1.03804686        1 
H      -0.54966251       4.13966950      -0.20955897        1 
