30
Lattice="0.0 0.0 0.0 0.0 0.0 0.0 0.0 0.0 0.0" Properties=species:S:1:pos:R:3:Z:I:1 pbc="F F F"
C       0.70478352       0.45448321      -0.05714412        6 
C      -0.69312665       0.45529671       0.08691103        6 
C       1.36936034      -0.88023391      -0.21067453        6 
C      -1.40366720      -0.85204212       0.30729588        6 
O       2.50362238      -0.98809181       0.50417370        8 
O       0.92609154      -1.77707131      -0.89012118        8 
O      -2.31012051      -1.09963908      -0.65307439        8 
O      -1.20529261      -1.57768250       1.25168497        8 
C      -3.02531163      -2.34489331      -0.53575026        6 
C       3.17017964      -2.26345216       0.42975218        6 
C       1.41361220       1.66184361      -0.17050924        6 
C       0.67665699       2.84797887      -0.11624415        6 
C      -0.70306524       2.84443233       0.04979678        6 
C      -1.42016561       1.65079540       0.15273328        6 
H      -2.32805748      -3.18193223      -0.58915340        1 
H       2.51625478      -3.05163378       0.80522928        1 
H      -1.23773060       3.78714416       0.10057765        1 
H      -3.57054128      -2.38626667       0.40852896        1 
H      -3.71253183      -2.36322863      -1.37863572        1 
H       4.05257903      -2.16399033       1.05775430        1 
H       3.45121136      -2.48857802      -0.60013330        1 
H       1.19857099       3.79419523      -0.21034902        1 
C      -2.91966244       1.66759655       0.33831194        6 
C       2.90884263       1.71893828      -0.37365120        6 
H       3.44015510       1.40085291       0.52551165        1 
H       3.21805170       2.73634461      -0.61885777        1 
H       3.23311454       1.06240498      -1.18506487        1 
H      -3.23098006       1.02958240       1.17038909        1 
H      -3.42934846       1.30210771      -0.55651089        1 
H      -3.26986702       2.68030870       0.54474870        1 
