30
Lattice="0.0 0.0 0.0 0.0 0.0 0.0 0.0 0.0 0.0" Properties=species:S:1:pos:R:3:Z:I:1 pbc="F F F"
C       0.73443095       0.38798188      -0.10860617        6 
C      -0.67840964       0.38731869       0.04194276        6 
C       1.40680104      -0.94393514       0.09472462        6 
C      -1.47701282      -0.81916622      -0.38983755        6 
O       2.75182481      -0.86021978       0.19633892        8 
O       0.83300816      -2.00433155       0.17632562        8 
O      -2.41157056      -1.16615794       0.51912161        8 
O      -1.29907809      -1.41012579      -1.42332732        8 
C      -3.21218155      -2.31475006       0.18373514        6 
C       3.43545134      -2.10859680       0.40692007        6 
C       1.43940021       1.60903302      -0.14081879        6 
C       0.70110795       2.79015721       0.00424590        6 
C      -0.66727656       2.77985787       0.20949692        6 
C      -1.39259477       1.58448679       0.20340314        6 
H      -3.77225209      -2.13727131      -0.73620913        1 
H       3.09467574      -2.57981276       1.32986900        1 
H      -1.19681490       3.71844032       0.33503830        1 
H      -2.57664039      -3.19172197       0.05431127        1 
H      -3.88982464      -2.45012063       1.02401003        1 
H       4.49036914      -1.85058067       0.47261226        1 
H       3.25407649      -2.78705944      -0.42784253        1 
H       1.22506742       3.73901469      -0.03175451        1 
C      -2.90132271       1.63995768       0.30967905        6 
C       2.93276581       1.74983488      -0.33039721        6 
H       3.47989054       1.46068650       0.56909857        1 
H       3.17119078       2.79015909      -0.55988052        1 
H       3.30228656       1.12096830      -1.13991398        1 
H      -3.25712539       1.14414075       1.21424108        1 
H      -3.38423913       1.14407756      -0.53691240        1 
H      -3.23851936       2.67769130       0.32466998        1 
