30
Lattice="0.0 0.0 0.0 0.0 0.0 0.0 0.0 0.0 0.0" Properties=species:S:1:pos:R:3:Z:I:1 pbc="F F F"
C       1.01281845      -0.10186691       0.09470994        6 
C      -0.15338094       0.69847541       0.01198893        6 
C       0.92005169      -1.59319566      -0.04469898        6 
C      -1.48758882       0.13537115       0.42570267        6 
O      -0.33269200      -2.00558650      -0.33273221        8 
O       1.85816517      -2.35851781      -0.05371683        8 
O      -2.43843566       0.33746416      -0.50840795        8 
O      -1.69058524      -0.41890590       1.47704624        8 
C      -3.75242061      -0.14834689      -0.18136343        6 
C      -0.51907768      -3.41722690      -0.51543223        6 
C       2.28813518       0.50026173       0.04034335        6 
C       2.34396434       1.88936648      -0.11671823        6 
C       1.19911452       2.66005205      -0.23436655        6 
C      -0.07355655       2.08841616      -0.15230590        6 
H      -3.72651138      -1.22548117      -0.00955225        1 
H       0.08060232      -3.77821428      -1.35242425        1 
H       1.28860275       3.73344280      -0.36375177        1 
H      -4.13377178       0.34676889       0.71345318        1 
H      -4.37214021       0.08786728      -1.04371866        1 
H      -1.58004514      -3.54185619      -0.72181580        1 
H      -0.23991255      -3.95952708       0.38911150        1 
H       3.31514703       2.36981436      -0.15779797        1 
C      -1.29465270       2.97993806      -0.19429138        6 
C       3.59097240      -0.25793835       0.12372841        6 
H       3.62790064      -0.90630019       0.99961296        1 
H       4.42203930       0.44871043       0.17017480        1 
H       3.73216859      -0.90968530      -0.74116768        1 
H      -1.95796052       2.79846040       0.65584247        1 
H      -1.88088849       2.81061480      -1.09995447        1 
H      -0.99756888       4.02946539      -0.16599863        1 
