30
Lattice="0.0 0.0 0.0 0.0 0.0 0.0 0.0 0.0 0.0" Properties=species:S:1:pos:R:3:Z:I:1 pbc="F F F"
C       0.32532479      -0.69746756       0.11229590        6 
C      -0.95640004      -0.13839205       0.00353039        6 
C       1.49427154       0.21622341       0.32801900        6 
C      -1.14800869       1.33415520       0.21620746        6 
O       2.39067296       0.11491313      -0.67163273        8 
O       1.63468413       0.94191928       1.28292799        8 
O      -0.50013052       2.05442713      -0.72236182        8 
O      -1.77305686       1.81899602       1.12525839        8 
C      -0.50631890       3.48230579      -0.52914193        6 
C       3.56646304       0.93617357      -0.54778410        6 
C       0.51503999      -2.08692133       0.02905689        6 
C      -0.61383149      -2.88310245      -0.16702239        6 
C      -1.88285829      -2.32787496      -0.28709762        6 
C      -2.08595587      -0.95145947      -0.18865497        6 
H      -1.52953182       3.85856637      -0.49719712        1 
H       3.28947961       1.99012006      -0.49952440        1 
H      -2.73716218      -2.97782229      -0.44504625        1 
H       0.00176843       3.73172301       0.40367646        1 
H       0.02826067       3.89209399      -1.38311789        1 
H       4.15514947       0.73415015      -1.43974576        1 
H       4.12539023       0.67107732       0.35123902        1 
H      -0.49582232      -3.96009444      -0.22532126        1 
C      -3.47908102      -0.37620535      -0.27826513        6 
C       1.87664439      -2.72653285       0.16082037        6 
H       2.46789022      -2.58586393      -0.74783663        1 
H       1.77700251      -3.79834015       0.34136611        1 
H       2.44592798      -2.29925329       0.99021312        1 
H      -3.53308967       0.44642899      -0.99659682        1 
H      -3.79974404       0.01970440       0.68842449        1 
H      -4.18982761      -1.14311413      -0.59126033        1 
