30
Lattice="0.0 0.0 0.0 0.0 0.0 0.0 0.0 0.0 0.0" Properties=species:S:1:pos:R:3:Z:I:1 pbc="F F F"
C       1.00832174      -0.16706227       0.08629940        6 
C      -0.09578636       0.71591181       0.03134778        6 
C       0.80845274      -1.64856478      -0.03869322        6 
C      -1.48255383       0.26183849       0.40883531        6 
O      -0.49187611      -1.99063039      -0.14678447        8 
O       1.69255250      -2.46805161      -0.15393991        8 
O      -2.35758248       0.41553440      -0.60477147        8 
O      -1.78339053      -0.15196118       1.49988439        8 
C      -3.71935397       0.04819984      -0.31964912        6 
C      -0.77770237      -3.38614427      -0.32693815        6 
C       2.32340033       0.34649900       0.02901241        6 
C       2.47640609       1.72990536      -0.10208278        6 
C       1.38761436       2.58308292      -0.19447010        6 
C       0.08080621       2.09901465      -0.11227406        6 
H      -3.77907603      -1.00618357      -0.04520266        1 
H      -0.31387859      -3.75701763      -1.24226669        1 
H       1.55042935       3.64972098      -0.30739671        1 
H      -4.11692332       0.65289243       0.49719845        1 
H      -4.26932468       0.23643996      -1.23921476        1 
H      -1.86174883      -3.45075251      -0.39258555        1 
H      -0.41139044      -3.96401326       0.52265162        1 
H       3.47909696       2.14065336      -0.14155130        1 
C      -1.08668434       3.05984408      -0.13828272        6 
C       3.57035530      -0.50228704       0.09284795        6 
H       3.55780706      -1.18089728       0.94647163        1 
H       4.44781072       0.14339736       0.16739527        1 
H       3.67211822      -1.13265604      -0.79286914        1 
H      -1.73900388       2.92146164       0.72894393        1 
H      -1.69950439       2.91515332      -1.03073323        1 
H      -0.73183818       4.09142963      -0.12598061        1 
