30
Lattice="0.0 0.0 0.0 0.0 0.0 0.0 0.0 0.0 0.0" Properties=species:S:1:pos:R:3:Z:I:1 pbc="F F F"
C       0.80764531       0.40633305       0.10333485        6 
C      -0.59724821       0.51526109       0.02294128        6 
C       1.48944933      -0.93124726       0.24225023        6 
C      -1.36797842      -0.75961700       0.17438544        6 
O       1.52683792      -1.57539892      -0.93982678        8 
O       2.03364332      -1.31591901       1.24640677        8 
O      -2.69081574      -0.63135068      -0.05173463        8 
O      -0.87046598      -1.82793225       0.45489562        8 
C      -3.47161789      -1.83388815       0.07213831        6 
C       2.04699452      -2.91681118      -0.90293954        6 
C       1.64158037       1.52721310       0.02956521        6 
C       1.03366928       2.77276719      -0.12301093        6 
C      -0.34728946       2.89445797      -0.19519621        6 
C      -1.19867982       1.78865381      -0.12069779        6 
H      -3.14279666      -2.57855885      -0.65428536        1 
H       3.06993351      -2.92522812      -0.52368189        1 
H      -0.78412520       3.88043332      -0.30738295        1 
H      -3.37998065      -2.24837586       1.07697046        1 
H      -4.49732800      -1.53092202      -0.12756299        1 
H       2.01513853      -3.26881078      -1.93188459        1 
H       1.41406327      -3.53518546      -0.26419719        1 
H       1.65223900       3.66165982      -0.18864187        1 
C      -2.68694277       2.04989767      -0.18774543        6 
C       3.14350682       1.39784706       0.10495213        6 
H       3.45838703       1.04486297       1.08995687        1 
H       3.62329246       2.35829387      -0.08938142        1 
H       3.51737908       0.67839546      -0.62935440        1 
H      -3.20596701       1.66978764       0.69379983        1 
H      -3.14481287       1.56599983      -1.05196903        1 
H      -2.86652439       3.12421788      -0.25692570        1 
