30
Lattice="0.0 0.0 0.0 0.0 0.0 0.0 0.0 0.0 0.0" Properties=species:S:1:pos:R:3:Z:I:1 pbc="F F F"
C       0.79627051       0.42294627       0.13904721        6 
C      -0.60624651       0.49296691      -0.01329840        6 
C       1.51441208      -0.89879108       0.23992280        6 
C      -1.35130084      -0.79466857       0.16409794        6 
O       1.56967259      -1.50068975      -0.96340321        8 
O       2.09197634      -1.29030831       1.22348986        8 
O      -2.69201421      -0.66653016       0.10335541        8 
O      -0.82414458      -1.86958080       0.34961727        8 
C      -3.44946898      -1.87836602       0.27555792        6 
C       2.13653434      -2.82298951      -0.97445314        6 
C       1.59941978       1.56833020       0.12250271        6 
C       0.96481936       2.79693799      -0.06024407        6 
C      -0.40990944       2.87740830      -0.23194559        6 
C      -1.23244508       1.74747403      -0.20504067        6 
H      -3.19871609      -2.59888902      -0.50417645        1 
H       3.16112823      -2.80874396      -0.59992805        1 
H      -0.86743307       3.84879815      -0.38386350        1 
H      -3.24622823      -2.32068301       1.25162699        1 
H      -4.49210243      -1.57699519       0.19907798        1 
H       2.11142387      -3.14055539      -2.01471403        1 
H       1.52863014      -3.48503790      -0.35546573        1 
H       1.56026303       3.70359604      -0.08073859        1 
C      -2.71799520       1.96647467      -0.38835877        6 
C       3.09867531       1.48725790       0.28057098        6 
H       3.36912284       1.08697935       1.26004448        1 
H       3.55015034       2.47402115       0.16887073        1 
H       3.54265345       0.82591158      -0.46953799        1 
H      -3.27996390       1.69239775       0.50648865        1 
H      -3.12067824       1.36623921      -1.20516318        1 
H      -2.90621954       3.01926151      -0.60563764        1 
