30
Lattice="0.0 0.0 0.0 0.0 0.0 0.0 0.0 0.0 0.0" Properties=species:S:1:pos:R:3:Z:I:1 pbc="F F F"
C       0.48120525      -0.54934301      -0.03045152        6 
C      -0.89410377      -0.24804667       0.14859129        6 
C       1.44139617       0.54751894       0.32423696        6 
C      -1.38924523       1.17101612       0.09434433        6 
O       2.72223770       0.27573958       0.00189893        8 
O       1.11919443       1.59390595       0.84049266        8 
O      -0.87248800       1.81361747      -0.97460931        8 
O      -2.28020625       1.62422497       0.77178705        8 
C      -1.24488174       3.19428003      -1.11003588        6 
C       3.68288933       1.29033404       0.34422334        6 
C       0.88998503      -1.88360193      -0.25028055        6 
C      -0.10619581      -2.86674185      -0.28350781        6 
C      -1.44085859      -2.56885499      -0.07338640        6 
C      -1.87251216      -1.25525875       0.13589649        6 
H      -2.32816930       3.29712374      -1.19091248        1 
H       3.46580760       2.21589055      -0.19096052        1 
H      -2.17461044      -3.36801113      -0.09080986        1 
H      -0.88875951       3.76047551      -0.24759184        1 
H      -0.75783396       3.53760387      -2.02024363        1 
H       4.64647819       0.88716104       0.04006338        1 
H       3.66643518       1.48558228       1.41734412        1 
H       0.18346919      -3.89717080      -0.45792026        1 
C      -3.35074584      -0.99046453       0.30338313        6 
C       2.31765527      -2.34736455      -0.43104752        6 
H       2.81042861      -1.83337279      -1.25674618        1 
H       2.32966574      -3.42032052      -0.63194480        1 
H       2.92021230      -2.16089706       0.46027767        1 
H      -3.72101069      -0.26714688      -0.42720564        1 
H      -3.57053804      -0.57681162       1.28855294        1 
H      -3.91208730      -1.91836263       0.17793573        1 
