30
Lattice="0.0 0.0 0.0 0.0 0.0 0.0 0.0 0.0 0.0" Properties=species:S:1:pos:R:3:Z:I:1 pbc="F F F"
C       0.89923138      -0.32927458       0.09492014        6 
C       0.04250680       0.76939030      -0.12687900        6 
C       0.42416370      -1.72833386      -0.16696152        6 
C      -1.45769851       0.63755130      -0.15982576        6 
O      -0.90346296      -1.88829831       0.00899708        8 
O       1.13048041      -2.62305944      -0.57263632        8 
O      -1.93545565       0.39108678       1.07520499        8 
O      -2.15945753       0.90344974      -1.10573667        8 
C      -3.36311438       0.26320845       1.18099414        6 
C      -1.45102764      -3.15857025      -0.38521941        6 
C       2.27448803      -0.11997791       0.33254007        6 
C       2.73966420       1.19595107       0.33131206        6 
C       1.89973468       2.26782771       0.05917758        6 
C       0.53536266       2.08199024      -0.16623884        6 
H      -3.86011313       1.17526552       0.84690292        1 
H      -1.28842171      -3.32858534      -1.45058167        1 
H       2.30460436       3.27408188       0.04176074        1 
H      -3.71142318      -0.57593338       0.57567936        1 
H      -3.56057587       0.08069269       2.23494923        1 
H      -2.51473275      -3.09294875      -0.16684904        1 
H      -0.99093516      -3.96690945       0.18435859        1 
H       3.78923276       1.37953232       0.53363456        1 
C      -0.37095810       3.26529103      -0.41224168        6 
C       3.25514184      -1.23815847       0.59453097        6 
H       2.84413064      -1.99861276       1.26023400        1 
H       4.16324044      -0.83494065       1.04732741        1 
H       3.52334530      -1.75091131      -0.33143394        1 
H      -1.17012000       3.31765039       0.33357774        1 
H      -0.85096628       3.19986892      -1.39063867        1 
H       0.19465886       4.19683295      -0.36321390        1 
