30
Lattice="0.0 0.0 0.0 0.0 0.0 0.0 0.0 0.0 0.0" Properties=species:S:1:pos:R:3:Z:I:1 pbc="F F F"
C       0.01013367      -0.73573613       0.08533383        6 
C      -0.96917478       0.27878399       0.00437484        6 
C       1.47465252      -0.45625105       0.30782268        6 
C      -0.59089937       1.72433218       0.01963090        6 
O       2.15653886      -0.50708157      -0.85134652        8 
O       1.98722452      -0.32127752       1.39051520        8 
O       0.74441886       1.90729767      -0.03690623        8 
O      -1.36448353       2.65473135       0.05311863        8 
C       1.21012620       3.26333344       0.04018560        6 
C       3.57794444      -0.30874604      -0.75182448        6 
C      -0.33967992      -2.09437590       0.04688944        6 
C      -1.68967224      -2.41772560      -0.07786068        6 
C      -2.65974793      -1.43019603      -0.16152194        6 
C      -2.33674066      -0.07255499      -0.12574510        6 
H       0.85756906       3.83670769      -0.81836030        1 
H       3.79407178       0.66882266      -0.31795794        1 
H      -3.70104667      -1.71704687      -0.25920022        1 
H       0.85777360       3.73420716       0.95870713        1 
H       2.29569556       3.19467638       0.03784115        1 
H       3.95111935      -0.36675304      -1.77180387        1 
H       4.03079815      -1.08367850      -0.13103575        1 
H      -1.98500181      -3.46153365      -0.10787050        1 
C      -3.46940451       0.92048363      -0.23969107        6 
C       0.69807409      -3.18821352       0.14554995        6 
H       1.39277283      -3.15285410      -0.69818263        1 
H       0.22107987      -4.16968170       0.14825410        1 
H       1.28660405      -3.09659818       1.06233509        1 
H      -3.32391039       1.60811693      -1.07425990        1 
H      -3.55521943       1.54046285       0.65424894        1 
H      -4.40973367       0.38508390      -0.38645413        1 
