30
Lattice="0.0 0.0 0.0 0.0 0.0 0.0 0.0 0.0 0.0" Properties=species:S:1:pos:R:3:Z:I:1 pbc="F F F"
C       1.00844861      -0.04393184      -0.10365264        6 
C      -0.20906957       0.67632610       0.01527232        6 
C       1.01886872      -1.53732825       0.06036668        6 
C      -1.48597623       0.01904976      -0.43596060        6 
O      -0.17125959      -2.01375446       0.48535878        8 
O       1.99994126      -2.24412302       0.00052641        8 
O      -2.52248398       0.27630240       0.38823645        8 
O      -1.57897730      -0.67225576      -1.42029261        8 
C      -3.77970977      -0.31691034       0.01791981        6 
C      -0.25976082      -3.43275268       0.68134584        6 
C       2.24248959       0.63568648      -0.07387436        6 
C       2.21280301       2.02429681       0.10289071        6 
C       1.02512331       2.71545548       0.26615905        6 
C      -0.21317765       2.06701367       0.20229406        6 
H      -4.10149012       0.04100273      -0.96159611        1 
H      -0.05486361      -3.95975852      -0.25195844        1 
H       1.04964942       3.79013331       0.41168788        1 
H      -3.69074567      -1.40391934      -0.01112599        1 
H      -4.48352963      -0.00991416       0.78865014        1 
H      -1.28318008      -3.61437789       1.00313205        1 
H       0.44718607      -3.76140546       1.44481099        1 
H       3.15130796       2.56702561       0.12652161        1 
C      -1.47631159       2.89587226       0.28183992        6 
C       3.58825055      -0.03624901      -0.20240564        6 
H       3.79776244      -0.68414052       0.65171070        1 
H       4.37078951       0.72240991      -0.26660355        1 
H       3.63925408      -0.67416260      -1.08495329        1 
H      -2.05848763       2.65502835       1.17308853        1 
H      -2.12879514       2.72684636      -0.57866345        1 
H      -1.22572656       3.95763508       0.30776170        1 
