30
Lattice="0.0 0.0 0.0 0.0 0.0 0.0 0.0 0.0 0.0" Properties=species:S:1:pos:R:3:Z:I:1 pbc="F F F"
C       1.00618406       0.24608668       0.14701884        6 
C      -0.36340939       0.59912150       0.04113036        6 
C       1.44880924      -1.17715536      -0.05652224        6 
C      -1.45729122      -0.35479932       0.44959637        6 
O       0.44678128      -2.07040138       0.02844558        8 
O       2.56676868      -1.50423771      -0.38962450        8 
O      -2.39315718      -0.49172983      -0.51413222        8 
O      -1.50178019      -0.92879397       1.50707875        8 
C      -3.50385128      -1.34849868      -0.19168849        6 
C       0.77811626      -3.43784945      -0.25812133        6 
C       1.99667643       1.25091294       0.15022094        6 
C       1.58152151       2.57936244       0.02067272        6 
C       0.24780202       2.91397379      -0.14549839        6 
C      -0.75291590       1.94001953      -0.11733871        6 
H      -3.15384478      -2.35897576       0.02462801        1 
H       1.12263001      -3.54117495      -1.28853400        1 
H      -0.03259511       3.95531355      -0.26335501        1 
H      -4.04441558      -0.96420753       0.67505048        1 
H      -4.14055231      -1.34266224      -1.07369732        1 
H      -0.14452373      -3.99319376      -0.10293276        1 
H       1.55641967      -3.79295970       0.41853697        1 
H       2.33016284       3.36400171       0.03574555        1 
C      -2.20229531       2.36803331      -0.20021625        6 
C       3.47667938       0.98334144       0.28913202        6 
H       3.68947780       0.23185241       1.04935229        1 
H       3.98843984       1.91013342       0.55751961        1 
H       3.90131088       0.60689266      -0.64365078        1 
H      -2.78715737       1.98491372       0.64067152        1 
H      -2.67525027       2.00239085      -1.11366644        1 
H      -2.27384652       3.45667018      -0.18548432        1 
