30
Lattice="0.0 0.0 0.0 0.0 0.0 0.0 0.0 0.0 0.0" Properties=species:S:1:pos:R:3:Z:I:1 pbc="F F F"
C       0.42142925      -0.59441390       0.01464972        6 
C      -0.93458173      -0.20118717      -0.11437253        6 
C       1.45385009       0.43221195      -0.34592558        6 
C      -1.32105586       1.24937233      -0.08197723        6 
O       2.66901978       0.18025934       0.18043018        8 
O       1.23079313       1.40926000      -1.02357120        8 
O      -0.65830845       1.90419432       0.89547797        8 
O      -2.22228016       1.74405140      -0.71526398        8 
C      -0.90176621       3.31774994       0.97428884        6 
C       3.70380279       1.12255531      -0.15278832        6 
C       0.75219499      -1.95403576       0.19640950        6 
C      -0.30205549      -2.87232829       0.26012233        6 
C      -1.62276345      -2.48367006       0.11826269        6 
C      -1.97570089      -1.14332841      -0.06615234        6 
H      -0.56407090       3.80301245       0.05671700        1 
H       3.83399615       1.18100924      -1.23434748        1 
H      -2.40618250      -3.23312893       0.16046772        1 
H      -1.96335776       3.52010219       1.12343815        1 
H      -0.32124913       3.66468072       1.82642292        1 
H       4.60435021       0.74155756       0.32391845        1 
H       3.45387238       2.11254199       0.23134786        1 
H      -0.07305751      -3.92272283       0.40350968        1 
C      -3.43976001      -0.78576654      -0.17968915        6 
C       2.15863466      -2.50087767       0.29282600        6 
H       2.75830409      -2.24076466      -0.58165259        1 
H       2.12478626      -3.58923395       0.36919094        1 
H       2.68386216      -2.10823817       1.16433833        1 
H      -3.67291345      -0.38131856      -1.16590202        1 
H      -3.73314167      -0.02321991       0.54548291        1 
H      -4.05274228      -1.67295403      -0.00984779        1 
