30
Lattice="0.0 0.0 0.0 0.0 0.0 0.0 0.0 0.0 0.0" Properties=species:S:1:pos:R:3:Z:I:1 pbc="F F F"
C       0.83271682       0.39176470      -0.21994905        6 
C      -0.54527076       0.37998986       0.12608206        6 
C       1.66820052      -0.85578610      -0.11972993        6 
C      -1.31663736      -0.87690505      -0.20468869        6 
O       1.37429665      -1.52191353       1.01243730        8 
O       2.63609119      -1.11023339      -0.79978996        8 
O      -2.59247864      -0.58671175      -0.55359788        8 
O      -0.89591350      -2.00812834      -0.24056436        8 
C      -3.40990726      -1.70664142      -0.93550548        6 
C       2.04826453      -2.77434575       1.20687521        6 
C       1.52829095       1.60402059      -0.36018779        6 
C       0.83355065       2.78380235      -0.06841630        6 
C      -0.47459920       2.76313041       0.38494778        6 
C      -1.20650934       1.57360009       0.46800410        6 
H      -2.99481559      -2.19947236      -1.81589973        1 
H       1.73249869      -3.48407071       0.43979794        1 
H      -0.95742170       3.69499303       0.65988113        1 
H      -3.47789267      -2.42940336      -0.12080155        1 
H      -4.38806350      -1.28497669      -1.15760356        1 
H       1.73721033      -3.12005683       2.19032428        1 
H       3.13066366      -2.64580940       1.16577093        1 
H       1.35096147       3.73268305      -0.16090734        1 
C      -2.63893576       1.66023904       0.94818232        6 
C       2.98039154       1.68889767      -0.76488987        6 
H       3.62776792       1.14811729      -0.07020765        1 
H       3.29801900       2.73263457      -0.79014648        1 
H       3.14569169       1.24451934      -1.74720868        1 
H      -2.93924533       0.78127269       1.51744054        1 
H      -3.33473634       1.75529990       0.11129725        1 
H      -2.75257783       2.53900592       1.58738838        1 
