30
Lattice="0.0 0.0 0.0 0.0 0.0 0.0 0.0 0.0 0.0" Properties=species:S:1:pos:R:3:Z:I:1 pbc="F F F"
C       0.63142824       0.41429782      -0.09187089        6 
C      -0.74821885       0.42716787       0.19442832        6 
C       1.34554501      -0.89823272       0.06583009        6 
C      -1.56567748      -0.83750786       0.26452167        6 
O       2.57741134      -0.74160605       0.59543770        8 
O       0.88895704      -1.98777122      -0.19066118        8 
O      -1.69966031      -1.38073906      -0.95563510        8 
O      -2.18011240      -1.20584075       1.23748553        8 
C      -2.44133464      -2.61176671      -1.02309751        6 
C       3.32247033      -1.95345911       0.81695326        6 
C       1.31436762       1.61770365      -0.35776707        6 
C       0.57651580       2.80234248      -0.31027341        6 
C      -0.77267073       2.81227683       0.02028543        6 
C      -1.46865152       1.62859832       0.26687585        6 
H      -1.90978031      -3.39220409      -0.47624134        1 
H       2.78942578      -2.60609500       1.50973906        1 
H      -1.30606069       3.75609683       0.06262351        1 
H      -3.44021350      -2.48535847      -0.60315502        1 
H      -2.49489181      -2.85871261      -2.08101326        1 
H       4.27101052      -1.63382926       1.24267884        1 
H       3.48031566      -2.48281963      -0.12409206        1 
H       1.07536067       3.73972129      -0.53140910        1 
C      -2.94961798       1.65733419       0.56539394        6 
C       2.77841651       1.68932368      -0.72481473        6 
H       3.41256624       1.61277154       0.16086032        1 
H       2.99005491       2.63962952      -1.21887029        1 
H       3.07051179       0.88248310      -1.39886445        1 
H      -3.16135431       1.25896273       1.55968474        1 
H      -3.51226784       1.04780550      -0.14838086        1 
H      -3.32984967       2.67829007       0.50886015        1 
