30
Lattice="0.0 0.0 0.0 0.0 0.0 0.0 0.0 0.0 0.0" Properties=species:S:1:pos:R:3:Z:I:1 pbc="F F F"
C       0.71201612       0.41422724      -0.05850814        6 
C      -0.69386954       0.39823037      -0.13062688        6 
C       1.53072171      -0.81617786      -0.35029348        6 
C      -1.42334980      -0.91587318      -0.21961956        6 
O       2.22834268      -1.20653591       0.74240310        8 
O       1.55390296      -1.40414124      -1.39795186        8 
O      -2.39276236      -0.98102669       0.72667539        8 
O      -1.18983034      -1.82496004      -0.97355515        8 
C      -3.18571874      -2.18178556       0.73194165        6 
C       3.04651515      -2.38046031       0.57116684        6 
C       1.40769381       1.62020791       0.13140604        6 
C       0.66547777       2.79712695       0.22373417        6 
C      -0.71950003       2.78606841       0.11900276        6 
C      -1.42885124       1.59618938      -0.04380884        6 
H      -3.70986201      -2.29865785      -0.21839601        1 
H       2.43093207      -3.23188995       0.27756029        1 
H      -1.26616533       3.72205818       0.16302218        1 
H      -2.55616476      -3.05650937       0.90153225        1 
H      -3.89482604      -2.05541898       1.54725290        1 
H       3.50945862      -2.55452129       1.53994857        1 
H       3.80594950      -2.20787154      -0.19329944        1 
H       1.18427916       3.74062100       0.35517675        1 
C      -2.93660372       1.64890345      -0.15414867        6 
C       2.91636297       1.66318375       0.19609120        6 
H       3.28658415       1.18279718       1.10465326        1 
H       3.27083197       2.69479520       0.18121569        1 
H       3.36681986       1.14155552      -0.65360116        1 
H      -3.41211980       1.36431429       0.78699258        1 
H      -3.31540972       0.97335583      -0.92432026        1 
H      -3.25716701       2.66084395      -0.40920445        1 
