30
Lattice="0.0 0.0 0.0 0.0 0.0 0.0 0.0 0.0 0.0" Properties=species:S:1:pos:R:3:Z:I:1 pbc="F F F"
C       0.56281513      -0.55954995       0.12024559        6 
C      -0.82551594      -0.35723731       0.04266284        6 
C       1.42739967       0.65415391       0.25755327        6 
C      -1.43184728       0.99904619       0.28593341        6 
O       2.52557127       0.58601810      -0.52199843        8 
O       1.17633874       1.60408054       0.96134314        8 
O      -1.35921034       1.77546166      -0.81257182        8 
O      -1.93404513       1.33767679       1.32592381        8 
C      -1.84608877       3.12286686      -0.65506797        6 
C       3.41808468       1.71312407      -0.44999283        6 
C       1.09924019      -1.86064505       0.03098177        6 
C       0.20647749      -2.91783363      -0.15050080        6 
C      -1.16273509      -2.70791290      -0.26195745        6 
C      -1.70879519      -1.43013540      -0.15347065        6 
H      -2.90121925       3.11736298      -0.37715457        1 
H       2.90464982       2.62437617      -0.75990784        1 
H      -1.82230151      -3.55536643      -0.41764751        1 
H      -1.27026579       3.63687908       0.11566306        1 
H      -1.70649274       3.59634501      -1.62426707        1 
H       4.23239423       1.48004331      -1.13225044        1 
H       3.79035774       1.84057055       0.56771937        1 
H       0.59444167      -3.92925518      -0.20806350        1 
C      -3.20311899      -1.22302016      -0.22701139        6 
C       2.57379846      -2.16646156       0.15474703        6 
H       3.11164125      -1.90146106      -0.75799690        1 
H       2.71791385      -3.23192511       0.34353378        1 
H       3.03728137      -1.61224506       0.97342337        1 
H      -3.46699243      -0.44711207      -0.95114237        1 
H      -3.60554181      -0.91489956       0.74192896        1 
H      -3.70484984      -2.14518007      -0.52549709        1 
