30
Lattice="0.0 0.0 0.0 0.0 0.0 0.0 0.0 0.0 0.0" Properties=species:S:1:pos:R:3:Z:I:1 pbc="F F F"
C       0.85626509      -0.42488150       0.04474845        6 
C       0.15430761       0.78251395      -0.10994839        6 
C       0.19621841      -1.73570371      -0.28080372        6 
C      -1.34532307       0.83607588      -0.22892214        6 
O      -0.99929166      -1.89865141       0.31521307        8 
O       0.66766712      -2.55012591      -1.03950239        8 
O      -1.93683648       0.61406195       0.95727789        8 
O      -1.94347683       1.19212257      -1.21674461        8 
C      -3.37388338       0.67745386       0.96708863        6 
C      -1.73348807      -3.08349664      -0.04900450        6 
C       2.24585451      -0.42147402       0.27363937        6 
C       2.88336237       0.81441423       0.36805724        6 
C       2.18950699       2.00644852       0.18841552        6 
C       0.81664381       2.01950008      -0.05402297        6 
H      -3.71889642       1.66250319       0.64903862        1 
H      -1.95712857      -3.07756005      -1.11686284        1 
H       2.72302601       2.94884619       0.25154966        1 
H      -3.79142598      -0.07987541       0.30096748        1 
H      -3.66419333       0.48201035       1.99697642        1 
H      -2.64962101      -3.04347457       0.53622318        1 
H      -1.16060650      -3.97908384       0.19458649        1 
H       3.94833360       0.84331356       0.57148522        1 
C       0.07273902       3.32243455      -0.22580264        6 
C       3.04366647      -1.69510944       0.42341757        6 
H       2.54407888      -2.41392501       1.07738527        1 
H       4.02669037      -1.47778522       0.84554581        1 
H       3.17870515      -2.18719973      -0.54186531        1 
H      -0.73610309       3.41991787       0.50505098        1 
H      -0.38017557       3.39052580      -1.21736564        1 
H       0.74724337       4.16951037      -0.09271461        1 
