30
Lattice="0.0 0.0 0.0 0.0 0.0 0.0 0.0 0.0 0.0" Properties=species:S:1:pos:R:3:Z:I:1 pbc="F F F"
C       0.69889436       0.43254858      -0.01277468        6 
C      -0.71161111       0.40788275       0.10639491        6 
C       1.51820614      -0.77809149       0.36291254        6 
C      -1.35701499      -0.94222653      -0.03449406        6 
O       2.26292122      -1.22667363      -0.66555254        8 
O       1.50769299      -1.27609491       1.45873827        8 
O      -2.68464849      -0.87715666      -0.27611990        8 
O      -0.77610018      -2.00056508       0.03259761        8 
C      -3.35530767      -2.13935732      -0.43953918        6 
C       3.02476427      -2.42145282      -0.40466390        6 
C       1.39579888       1.63709977      -0.17240816        6 
C       0.65472164       2.82021680      -0.19607981        6 
C      -0.72057388       2.80834709      -0.02276152        6 
C      -1.44125438       1.61739415       0.11361808        6 
H      -2.94501201      -2.68241757      -1.29206321        1 
H       3.73576054      -2.25376334       0.40578178        1 
H      -1.26120306       3.74837914      -0.00371135        1 
H      -3.24691552      -2.74847721       0.45886819        1 
H      -4.40004692      -1.88820250      -0.61118328        1 
H       3.54551740      -2.64174075      -1.33398307        1 
H       2.35351734      -3.23752744      -0.13387459        1 
H       1.17062741       3.76676650      -0.31781692        1 
C      -2.94169670       1.72988946       0.27443934        6 
C       2.90298204       1.67964006      -0.26878088        6 
H       3.36962478       1.18362428       0.58757077        1 
H       3.25619337       2.71159950      -0.29053419        1 
H       3.25664506       1.17130524      -1.16818141        1 
H      -3.31711749       1.09695997       1.07870240        1 
H      -3.46602077       1.42878588      -0.63464634        1 
H      -3.20551855       2.76574131       0.49676806        1 
