30
Lattice="0.0 0.0 0.0 0.0 0.0 0.0 0.0 0.0 0.0" Properties=species:S:1:pos:R:3:Z:I:1 pbc="F F F"
C       0.70140230       0.45339796       0.15541207        6 
C      -0.70009554       0.43218234       0.11085979        6 
C       1.45525099      -0.83514577       0.32879947        6 
C      -1.47432333      -0.83545067       0.36058661        6 
O       2.27161408      -1.05620738      -0.72804213        8 
O       1.34674218      -1.60157076       1.25122658        8 
O      -2.03538493      -1.28531187      -0.78611785        8 
O      -1.59050622      -1.38934775       1.42129772        8 
C      -2.83982593      -2.47567840      -0.66726553        6 
C       3.04919630      -2.26785332      -0.67696238        6 
C       1.40431519       1.66069997       0.00459467        6 
C       0.66214002       2.82770327      -0.17709228        6 
C      -0.72699759       2.80217833      -0.23874395        6 
C      -1.43557614       1.60918299      -0.10145065        6 
H      -2.23900963      -3.30592448      -0.29338286        1 
H       3.70095089      -2.26841446       0.19826252        1 
H      -1.27366440       3.72791039      -0.38473387        1 
H      -3.67575442      -2.30454571       0.01325994        1 
H      -3.19935796      -2.68253234      -1.67276622        1 
H       3.63508795      -2.27314210      -1.59326772        1 
H       2.39378911      -3.13917458      -0.63403180        1 
H       1.18273980       3.77461676      -0.27185181        1 
C      -2.94566229       1.59655479      -0.15927299        6 
C       2.91215315       1.71967317       0.05445483        6 
H       3.31646780       1.08130854       0.84392051        1 
H       3.24802533       2.74063049       0.24359659        1 
H       3.34878286       1.38298563      -0.88932705        1 
H      -3.37436504       1.06808900       0.69747725        1 
H      -3.30028333       1.09250627      -1.06234523        1 
H      -3.33962716       2.61373599      -0.15710877        1 
