30
Lattice="0.0 0.0 0.0 0.0 0.0 0.0 0.0 0.0 0.0" Properties=species:S:1:pos:R:3:Z:I:1 pbc="F F F"
C       0.72359563       0.34817289      -0.10653291        6 
C      -0.69475750       0.34441411       0.08329856        6 
C       1.42811587      -0.93812546       0.25504457        6 
C      -1.44774227      -0.87984247      -0.38308537        6 
O       2.76565368      -0.89670438       0.05874542        8 
O       0.88062566      -1.93541069       0.65760734        8 
O      -2.64794319      -1.02395435       0.22218447        8 
O      -1.02355552      -1.68158499      -1.17622669        8 
C      -3.40522921      -2.18463574      -0.16397921        6 
C       3.47319327      -2.10931533       0.37167962        6 
C       1.42181415       1.56583721      -0.20768287        6 
C       0.68432909       2.75302020      -0.08231718        6 
C      -0.66884255       2.74557487       0.18630892        6 
C      -1.40057716       1.55026961       0.23977601        6 
H      -3.61995178      -2.16545887      -1.23377599        1 
H       3.35397972      -2.36164465       1.42647415        1 
H      -1.19294826       3.68684562       0.31259170        1 
H      -2.85080125      -3.09376556       0.07306173        1 
H      -4.32629304      -2.13324257       0.41304632        1 
H       4.51603841      -1.90125768       0.14116284        1 
H       3.09956400      -2.93459375      -0.23610187        1 
H       1.20415037       3.70100904      -0.16789388        1 
C      -2.90052118       1.66205769       0.41645005        6 
C       2.91084425       1.71008295      -0.43116984        6 
H       3.48253340       1.41361467       0.45048748        1 
H       3.14195659       2.75293029      -0.65630754        1 
H       3.25907661       1.08818204      -1.25502115        1 
H      -3.24617680       1.10641806       1.28804900        1 
H      -3.44364837       1.26569523      -0.44431200        1 
H      -3.17725060       2.71104939       0.53655502        1 
