30
Lattice="0.0 0.0 0.0 0.0 0.0 0.0 0.0 0.0 0.0" Properties=species:S:1:pos:R:3:Z:I:1 pbc="F F F"
C       0.57606342       0.56473727      -0.10891194        6 
C      -0.81515269       0.37795856      -0.04054367        6 
C       1.41710174      -0.66743256      -0.23796880        6 
C      -1.43643997      -0.97351290      -0.28198655        6 
O       2.56028087      -0.59268038       0.47305308        8 
O       1.10624617      -1.64740731      -0.87479628        8 
O      -1.39378365      -1.74514597       0.82161436        8 
O      -1.93462996      -1.30815675      -1.32548100        8 
C      -1.88609468      -3.09035763       0.65928675        6 
C       3.41046254      -1.75358637       0.41374538        6 
C       1.12380858       1.86053086      -0.02697851        6 
C       0.23717727       2.92557603       0.14275523        6 
C      -1.13515785       2.72840161       0.24965293        6 
C      -1.69188574       1.45464885       0.14712508        6 
H      -2.93054490      -3.08051077       0.34399492        1 
H       2.88561753      -2.62797267       0.80126651        1 
H      -1.78771522       3.58248622       0.39748306        1 
H      -1.28632698      -3.61567153      -0.08532177        1 
H      -1.78405006      -3.55604237       1.63703107        1 
H       4.26944690      -1.51372840       1.03628929        1 
H       3.71966899      -1.94890078      -0.61415123        1 
H       0.63294446       3.93402351       0.19466528        1 
C      -3.18623216       1.24540375       0.21693629        6 
C       2.60167557       2.14838546      -0.14697758        6 
H       3.13490907       1.86787930       0.76369741        1 
H       2.76051467       3.21279610      -0.32840838        1 
H       3.05770910       1.59133321      -0.96783403        1 
H      -3.44834879       0.47410916       0.94695526        1 
H      -3.58340074       0.92430571      -0.75002421        1 
H      -3.69335960       2.16768465       0.50490138        1 
