30
Lattice="0.0 0.0 0.0 0.0 0.0 0.0 0.0 0.0 0.0" Properties=species:S:1:pos:R:3:Z:I:1 pbc="F F F"
C       0.94099761       0.16055535      -0.17082915        6 
C      -0.41428789       0.52920710       0.08482319        6 
C       1.38378846      -1.26011172       0.06084619        6 
C      -1.45184620      -0.45787478      -0.38972461        6 
O       0.57077264      -1.88564650       0.94111985        8 
O       2.45490846      -1.72464238      -0.25790301        8 
O      -2.72164774      -0.06716306      -0.14133532        8 
O      -1.20969014      -1.50655962      -0.94007503        8 
C      -3.75298218      -0.96016669      -0.59624858        6 
C       0.88010079      -3.25772028       1.22213304        6 
C       1.94924735       1.13257402      -0.26089733        6 
C       1.58312286       2.46464791      -0.02001867        6 
C       0.29611238       2.80803564       0.34487868        6 
C      -0.74319482       1.86614024       0.37824704        6 
H      -3.68006721      -1.11446266      -1.67369348        1 
H       0.79183251      -3.85592477       0.31299531        1 
H       0.06793912       3.84340500       0.57370293        1 
H      -3.67303350      -1.92420797      -0.09160614        1 
H      -4.69016839      -0.46996572      -0.34020285        1 
H       0.14204985      -3.57519337       1.95599246        1 
H       1.88965830      -3.35609161       1.62399970        1 
H       2.34312919       3.23587744      -0.08391058        1 
C      -2.12678046       2.38250053       0.70911889        6 
C       3.39705151       0.83065578      -0.56475902        6 
H       3.85663811       0.22450832       0.21925039        1 
H       3.95400123       1.76510979      -0.65601733        1 
H       3.50301004       0.26161090      -1.48861442        1 
H      -2.62736770       1.76181223       1.45129180        1 
H      -2.77167693       2.40018928      -0.17215554        1 
H      -2.04921350       3.39988655       1.09728345        1 
