30
Lattice="0.0 0.0 0.0 0.0 0.0 0.0 0.0 0.0 0.0" Properties=species:S:1:pos:R:3:Z:I:1 pbc="F F F"
C       0.72489149       0.41396053       0.09210109        6 
C      -0.68959637       0.40989449      -0.00189386        6 
C       1.38555709      -0.92264687      -0.09602582        6 
C      -1.46662430      -0.81949788       0.40175699        6 
O       2.73461338      -0.87681520      -0.07158966        8 
O       0.78891998      -1.96357844      -0.24944706        8 
O      -2.35425310      -1.19184180      -0.54103599        8 
O      -1.32002051      -1.39181930       1.45139717        8 
C      -3.12383249      -2.37137442      -0.24204149        6 
C       3.40247566      -2.13899304      -0.24954121        6 
C       1.42739970       1.63838689       0.07617655        6 
C       0.67719613       2.81510435      -0.03702346        6 
C      -0.70175166       2.79926262      -0.16398734        6 
C      -1.41861807       1.60040744      -0.12669745        6 
H      -2.45970593      -3.22275227      -0.08763953        1 
H       3.13047319      -2.82948183       0.55003815        1 
H      -1.24108234       3.73549795      -0.26306026        1 
H      -3.72865168      -2.21841764       0.65363281        1 
H      -3.75928281      -2.53032260      -1.11064707        1 
H       4.46522007      -1.90868948      -0.21460213        1 
H       3.13422080      -2.58136311      -1.20988403        1 
H       1.19811405       3.76618345      -0.03872651        1 
C      -2.93063398       1.63256477      -0.17227274        6 
C       2.92915326       1.78082547       0.16698189        6 
H       3.33784909       1.23296268       1.01597341        1 
H       3.18962927       2.83563948       0.27243450        1 
H       3.42419844       1.39182595      -0.72500116        1 
H      -3.37005356       1.10095907       0.67645085        1 
H      -3.31218405       1.15849251      -1.07864424        1 
H      -3.28759119       2.66322427      -0.14223731        1 
