30
Lattice="0.0 0.0 0.0 0.0 0.0 0.0 0.0 0.0 0.0" Properties=species:S:1:pos:R:3:Z:I:1 pbc="F F F"
C       0.38590122      -0.61814437      -0.08091964        6 
C      -0.98282272      -0.26894047      -0.06487698        6 
C       1.48794447       0.36646780      -0.37659149        6 
C      -1.42558422       1.15156782       0.13033532        6 
O       2.24748694       0.58971913       0.71718133        8 
O       1.68794514       0.87609875      -1.44775638        8 
O      -0.58233619       2.05123764      -0.40150763        8 
O      -2.41835062       1.47292154       0.74442488        8 
C      -0.90607594       3.43503139      -0.18735009        6 
C       3.36693521       1.47617349       0.53290751        6 
C       0.78497728      -1.96563046      -0.02937226        6 
C      -0.20488471      -2.94601951       0.01611436        6 
C      -1.55017858      -2.60941575      -0.00642606        6 
C      -1.97119485      -1.27974064      -0.02627666        6 
H      -1.88635830       3.66620759      -0.60630420        1 
H       4.06051975       1.06618723      -0.20332210        1 
H      -2.29753311      -3.39566758       0.00139918        1 
H      -0.90838132       3.66625840       0.87917274        1 
H      -0.12756468       3.99250682      -0.70319865        1 
H       3.84247451       1.54962750       1.50831878        1 
H       3.02443285       2.45549296       0.19568670        1 
H       0.08628995      -3.99088219       0.04679531        1 
C      -3.45810955      -1.00649965      -0.01956819        6 
C       2.24111601      -2.37059124      -0.05657507        6 
H       2.76874065      -1.91942644      -0.90203936        1 
H       2.33230693      -3.45392648      -0.14886503        1 
H       2.75602580      -2.06018775       0.85586575        1 
H      -3.73915148      -0.22330121      -0.72494775        1 
H      -3.79510687      -0.67540646       0.96457090        1 
H      -3.99806534      -1.91842798      -0.28373585        1 
