30
Lattice="0.0 0.0 0.0 0.0 0.0 0.0 0.0 0.0 0.0" Properties=species:S:1:pos:R:3:Z:I:1 pbc="F F F"
C       0.98234081      -0.20641188       0.04252154        6 
C      -0.03098190       0.75589558      -0.09729664        6 
C       0.66560743      -1.65835635      -0.13379987        6 
C      -1.47192587       0.36159089      -0.28672595        6 
O      -0.54807852      -1.98223859       0.36247228        8 
O       1.38484295      -2.46189521      -0.67916309        8 
O      -2.13640428       0.38435189       0.88195005        8 
O      -1.99548149       0.16418161      -1.35632208        8 
C      -3.53614766       0.05595999       0.81590228        6 
C      -1.01123166      -3.31713962       0.08935731        6 
C       2.32199774       0.19009037       0.23128232        6 
C       2.58843091       1.55850609       0.27934066        6 
C       1.58240339       2.50588477       0.11926174        6 
C       0.25378813       2.12776558      -0.06873484        6 
H      -4.06726497       0.76293613       0.17637088        1 
H      -1.13337530      -3.45940912      -0.98554184        1 
H       1.83306688       3.56102974       0.14764902        1 
H      -3.66996077      -0.95299234       0.42194567        1 
H      -3.89648790       0.11789543       1.84023875        1 
H      -1.96945431      -3.39994941       0.59763826        1 
H      -0.30606267      -4.05362674       0.47593417        1 
H       3.60933922       1.88821436       0.43763053        1 
C      -0.84006202       3.15620535      -0.22965739        6 
C       3.45315257      -0.79624688       0.39573044        6 
H       3.20781125      -1.57934560       1.11650265        1 
H       4.35148428      -0.28120031       0.74107869        1 
H       3.67639485      -1.29974319      -0.54672567        1 
H      -1.55908906       3.09773761       0.59294920        1 
H      -1.39477993       3.00343748      -1.15969861        1 
H      -0.42511392       4.16507297      -0.24453276        1 
