30
Lattice="0.0 0.0 0.0 0.0 0.0 0.0 0.0 0.0 0.0" Properties=species:S:1:pos:R:3:Z:I:1 pbc="F F F"
C       0.85986153       0.35583303      -0.12119877        6 
C      -0.53595956       0.53783419       0.01451557        6 
C       1.46353678      -1.02323381      -0.16027754        6 
C      -1.38457480      -0.67013048      -0.24903126        6 
O       1.22580766      -1.68013107       0.99348199        8 
O       2.19416344      -1.43056410      -1.02938005        8 
O      -2.69686292      -0.48237902      -0.00396476        8 
O      -0.95491702      -1.73577724      -0.63292402        8 
C      -3.55156257      -1.61483524      -0.24583351        6 
C       1.64205439      -3.05670914       1.02442397        6 
C       1.75167419       1.43439092      -0.09199309        6 
C       1.21057098       2.70917984       0.08526747        6 
C      -0.15477790       2.89803964       0.23802278        6 
C      -1.06442725       1.83638274       0.19544088        6 
H      -3.48586397      -1.92765985      -1.28876959        1 
H       1.07908535      -3.62298318       0.28030445        1 
H      -0.53618894       3.90339469       0.37794595        1 
H      -3.26923309      -2.44935178       0.39745961        1 
H      -4.55624318      -1.27060168      -0.00937307        1 
H       1.40997359      -3.40728023       2.02793375        1 
H       2.71022190      -3.14448108       0.82231617        1 
H       1.87431099       3.56659570       0.11595355        1 
C      -2.53241128       2.17298611       0.33613172        6 
C       3.24344194       1.24594130      -0.22527649        6 
H       3.62594949       0.54004301       0.51732120        1 
H       3.76226939       2.19598755      -0.08781927        1 
H       3.50136538       0.84193102      -1.20590100        1 
H      -2.98762009       1.65354716       1.18048201        1 
H      -3.10204265       1.88624970      -0.54973429        1 
H      -2.64725625       3.24787583       0.48641155        1 
