30
Lattice="0.0 0.0 0.0 0.0 0.0 0.0 0.0 0.0 0.0" Properties=species:S:1:pos:R:3:Z:I:1 pbc="F F F"
C       0.73247921       0.47481161      -0.12031544        6 
C      -0.65599965       0.44875864       0.08772654        6 
C       1.47795265      -0.81873128      -0.31397573        6 
C      -1.31265559      -0.89693832       0.12768598        6 
O       2.11724199      -1.19180734       0.80453779        8 
O       1.53446893      -1.41482274      -1.36231738        8 
O      -2.48372652      -0.92033837      -0.53738350        8 
O      -0.84625353      -1.87073594       0.67341949        8 
C      -3.17416768      -2.18430800      -0.55521162        6 
C       2.76579209      -2.47757114       0.75523926        6 
C       1.43572225       1.68095548      -0.20198509        6 
C       0.70786250       2.86161157      -0.05021078        6 
C      -0.66314691       2.84151412       0.18297917        6 
C      -1.38008871       1.64496914       0.24667961        6 
H      -2.56229581      -2.94261701      -1.04517362        1 
H       2.02702324      -3.25285020       0.54840854        1 
H      -1.19301984       3.77813961       0.31918846        1 
H      -3.40554589      -2.50763814       0.46073981        1 
H      -4.08708800      -2.00496068      -1.11903010        1 
H       3.20232397      -2.61783737       1.74147890        1 
H       3.53838875      -2.49049841      -0.01510299        1 
H       1.22557855       3.81317975      -0.10820080        1 
C      -2.86871396       1.68671213       0.50786857        6 
C       2.92340183       1.69877295      -0.45335025        6 
H       3.46492283       1.20504443       0.35832904        1 
H       3.29194112       2.72235312      -0.53508701        1 
H       3.17260982       1.17386797      -1.38018511        1 
H      -3.18073210       0.92906704       1.22931783        1 
H      -3.43526265       1.50695918      -0.40893566        1 
H      -3.15289620       2.66490988       0.90063027        1 
