30
Lattice="0.0 0.0 0.0 0.0 0.0 0.0 0.0 0.0 0.0" Properties=species:S:1:pos:R:3:Z:I:1 pbc="F F F"
C       0.47046256      -0.52067034       0.06396332        6 
C      -0.89950957      -0.20894211      -0.16829498        6 
C       1.45247557       0.54292904      -0.34342014        6 
C      -1.39857956       1.20281658      -0.02450564        6 
O       2.74136930       0.19729345      -0.14190002        8 
O       1.14818196       1.61356575      -0.81763284        8 
O      -0.78439071       1.82079436       1.00720788        8 
O      -2.37653917       1.66013919      -0.56849603        8 
C      -1.17408353       3.18258380       1.23918057        6 
C       3.72103854       1.16460240      -0.55792965        6 
C       0.85763411      -1.85100262       0.32996794        6 
C      -0.14440932      -2.83063837       0.31932219        6 
C      -1.45796440      -2.53284687       0.01145472        6 
C      -1.87695520      -1.21669157      -0.21989382        6 
H      -0.95052782       3.79028416       0.36052560        1 
H       3.62733678       1.36795474      -1.62562390        1 
H      -2.19229949      -3.33090788      -0.01945318        1 
H      -2.23999099       3.24769612       1.46382582        1 
H      -0.58178105       3.51106979       2.09055033        1 
H       4.68422409       0.70999069      -0.33570369        1 
H       3.59713188       2.09629123      -0.00421626        1 
H       0.12939076      -3.85869770       0.53007482        1 
C      -3.34560291      -0.96505084      -0.47051564        6 
C       2.26620453      -2.32212150       0.61527537        6 
H       2.89449135      -2.27484389      -0.27668239        1 
H       2.23815400      -3.35765776       0.95972374        1 
H       2.75386092      -1.71407794       1.37642407        1 
H      -3.51139044      -0.49739123      -1.44154354        1 
H      -3.77752685      -0.29129424       0.27297356        1 
H      -3.89276819      -1.90933685      -0.43669454        1 
