30
Lattice="0.0 0.0 0.0 0.0 0.0 0.0 0.0 0.0 0.0" Properties=species:S:1:pos:R:3:Z:I:1 pbc="F F F"
C       0.74120776       0.47750004      -0.12748579        6 
C      -0.63487446       0.45062885       0.13305618        6 
C       1.48949570      -0.81819198      -0.28925320        6 
C      -1.31750733      -0.88583813       0.15592893        6 
O       1.98899600      -1.24184856       0.87977288        8 
O       1.66035471      -1.37782262      -1.34609438        8 
O      -2.34754020      -0.92852747      -0.71163876        8 
O      -0.99809442      -1.81986629       0.85290525        8 
C      -3.08101341      -2.16793260      -0.76298317        6 
C       2.64307602      -2.52606940       0.85987915        6 
C       1.43650735       1.68685968      -0.24063456        6 
C       0.70974495       2.86489664      -0.06732293        6 
C      -0.65359050       2.84138006       0.21332475        6 
C      -1.36057116       1.64162593       0.30275257        6 
H      -2.43088533      -2.97892147      -1.09390000        1 
H       1.92968237      -3.29823450       0.56882162        1 
H      -1.18345766       3.77666175       0.35965452        1 
H      -3.48951604      -2.41100793       0.21916176        1 
H      -3.87967765      -1.99971503      -1.48182543        1 
H       2.98696967      -2.68910760       1.87846830        1 
H       3.48176677      -2.51964176       0.16234385        1 
H       1.22226282       3.81786516      -0.14546272        1 
C      -2.84436820       1.65167189       0.58810937        6 
C       2.91432648       1.70416465      -0.54243062        6 
H       3.47901961       1.16611266       0.22477447        1 
H       3.29197693       2.72666037      -0.58606389        1 
H       3.12440488       1.22143244      -1.50119305        1 
H      -3.12323589       0.88833556       1.31877777        1 
H      -3.41984075       1.45467185      -0.31987325        1 
H      -3.14961863       2.62220481       0.98358357        1 
