30
Lattice="0.0 0.0 0.0 0.0 0.0 0.0 0.0 0.0 0.0" Properties=species:S:1:pos:R:3:Z:I:1 pbc="F F F"
C       0.58217846       0.54372081      -0.03009739        6 
C      -0.81618775       0.36970124      -0.10055473        6 
C       1.40773554      -0.69031291      -0.22139731        6 
C      -1.44419734      -0.99516444      -0.22428452        6 
O       2.70393129      -0.54334234       0.11579468        8 
O       0.96462223      -1.74608822      -0.61719306        8 
O      -1.35561077      -1.67416991       0.93582681        8 
O      -2.06154361      -1.37536448      -1.18721432        8 
C      -1.86013774      -3.02209790       0.90790186        6 
C       3.52635463      -1.71477288      -0.03978602        6 
C       1.12245752       1.84196072       0.11485147        6 
C       0.22173288       2.90710319       0.20423699        6 
C      -1.15262241       2.72108863       0.14610620        6 
C      -1.70342242       1.44952314      -0.00987696        6 
H      -2.91625522      -3.03375283       0.63363966        1 
H       3.16908169      -2.51816568       0.60611207        1 
H      -1.81176886       3.57931808       0.22406972        1 
H      -1.28991217      -3.61295512       0.18924064        1 
H      -1.72096969      -3.40457689       1.91674052        1 
H       4.52704425      -1.40369526       0.25209381        1 
H       3.51331153      -2.05639804      -1.07564504        1 
H       0.61353671       3.91205773       0.31478483        1 
C      -3.20095907       1.25816494      -0.06956865        6 
C       2.59779306       2.16505818       0.15981035        6 
H       3.07942976       1.72403835       1.03410615        1 
H       2.73412439       3.24706420       0.19667264        1 
H       3.12459522       1.78057876      -0.71531055        1 
H      -3.53819437       0.50897338       0.65252070        1 
H      -3.51519066       0.91284511      -1.05731093        1 
H      -3.71635758       2.19441027       0.15112610        1 
