30
Lattice="0.0 0.0 0.0 0.0 0.0 0.0 0.0 0.0 0.0" Properties=species:S:1:pos:R:3:Z:I:1 pbc="F F F"
C       0.67176230       0.45035414       0.03593104        6 
C      -0.72533027       0.44962588      -0.14294292        6 
C       1.34287994      -0.88489409      -0.04606734        6 
C      -1.50750546      -0.82925820      -0.31198210        6 
O       2.66250544      -0.81635390      -0.30858832        8 
O       0.76686751      -1.94365906       0.07450699        8 
O      -1.89136560      -1.32030201       0.87854499        8 
O      -1.86985212      -1.26616908      -1.37678179        8 
C      -2.61407557      -2.56465464       0.83616746        6 
C       3.33983546      -2.08094368      -0.43560079        6 
C       1.35627252       1.67010017       0.23535360        6 
C       0.59689473       2.84265240       0.23001397        6 
C      -0.77678578       2.83156841       0.02269823        6 
C      -1.46892559       1.63566777      -0.16128733        6 
H      -3.52442000      -2.46219314       0.24327737        1 
H       3.25171850      -2.65551686       0.48748323        1 
H      -1.32525665       3.76771037       0.01635912        1 
H      -1.98240297      -3.34220847       0.40405183        1 
H      -2.85278066      -2.79609407       1.87187904        1 
H       4.37906513      -1.83063240      -0.63683657        1 
H       2.91476315      -2.65734966      -1.25831475        1 
H       1.10008415       3.78959362       0.39164922        1 
C      -2.96600109       1.62492969      -0.36507498        6 
C       2.84279338       1.78780247       0.47958876        6 
H       3.18500725       1.09944801       1.25402525        1 
H       3.08398210       2.80523525       0.79254676        1 
H       3.41471839       1.55760262      -0.42139064        1 
H      -3.46548602       1.02607109       0.40234945        1 
H      -3.22898824       1.19434303      -1.33461226        1 
H      -3.36883643       2.63758023      -0.31762210        1 
