30
Lattice="0.0 0.0 0.0 0.0 0.0 0.0 0.0 0.0 0.0" Properties=species:S:1:pos:R:3:Z:I:1 pbc="F F F"
C       0.71423253       0.33640064      -0.08808439        6 
C      -0.70504940       0.33195497       0.11590834        6 
C       1.45059299      -0.90415703       0.36108511        6 
C      -1.42744080      -0.92641539      -0.30985714        6 
O       2.73276209      -0.95412943      -0.06676529        8 
O       0.95659088      -1.80054683       0.99836875        8 
O      -2.74009296      -0.92855322       0.01912272        8 
O      -0.91163879      -1.86639381      -0.86150877        8 
C      -3.47345913      -2.10750183      -0.35499236        6 
C       3.45895174      -2.14099093       0.29842113        6 
C       1.40583203       1.55002391      -0.24729510        6 
C       0.66616572       2.73976992      -0.16043462        6 
C      -0.67975416       2.73667064       0.13837630        6 
C      -1.40949039       1.54283094       0.25033004        6 
H      -3.44441544      -2.25159781      -1.43619979        1 
H       3.50049243      -2.24886051       1.38333252        1 
H      -1.20298243       3.68035429       0.24839584        1 
H      -3.05263473      -2.98757695       0.13339360        1 
H      -4.49313591      -1.93071932      -0.01835572        1 
H       4.45689802      -2.00676992      -0.11383737        1 
H       2.97945279      -3.02293277      -0.12904541        1 
H       1.18100037       3.68572862      -0.28839184        1 
C      -2.89996266       1.67865099       0.48282938        6 
C       2.89472448       1.68409412      -0.48022620        6 
H       3.47368657       1.35625269       0.38542784        1 
H       3.13764586       2.72954555      -0.67861803        1 
H       3.22517160       1.08057064      -1.32514226        1 
H      -3.24062371       1.05729949       1.31012351        1 
H      -3.47750009       1.37840129      -0.39400826        1 
H      -3.13578180       2.72089752       0.70639871        1 
