30
Lattice="0.0 0.0 0.0 0.0 0.0 0.0 0.0 0.0 0.0" Properties=species:S:1:pos:R:3:Z:I:1 pbc="F F F"
C      -0.05587106      -0.74001239       0.10130429        6 
C      -0.93974986       0.35881160       0.01420092        6 
C       1.43321439      -0.60093652       0.29268181        6 
C      -0.43417728       1.76545988       0.03163589        6 
O       2.07338845      -0.63557302      -0.89152355        8 
O       1.98777531      -0.58134160       1.36251073        8 
O       0.91043076       1.82759779       0.11093015        8 
O      -1.11951818       2.76188730      -0.02559763        8 
C       1.49168782       3.13887763       0.17695833        6 
C       3.50883771      -0.55749363      -0.83035389        6 
C      -0.52682973      -2.06157982       0.06924084        6 
C      -1.89992673      -2.26419621      -0.05741900        6 
C      -2.77730522      -1.19378839      -0.14369353        6 
C      -2.33377839       0.12941329      -0.11032616        6 
H       1.27811733       3.69709587      -0.73591719        1 
H       3.81608064       0.36935924      -0.34359229        1 
H      -3.84030698      -1.38451875      -0.24159356        1 
H       1.09870333       3.68567700       1.03489912        1 
H       2.56120218       2.97330126       0.28637510        1 
H       3.84432612      -0.57766298      -1.86478471        1 
H       3.91565548      -1.40499579      -0.27612145        1 
H      -2.28646773      -3.27781402      -0.08524755        1 
C      -3.37532756       1.21834522      -0.21247935        6 
C       0.40857594      -3.24255757       0.18109257        6 
H       1.16268090      -3.23198498      -0.61100753        1 
H      -0.14540135      -4.17942279       0.10467832        1 
H       0.93714529      -3.23892266       1.13813000        1 
H      -3.19803020       1.87107455      -1.06866567        1 
H      -3.37105911       1.86504442       0.66658283        1 
H      -4.36475920       0.76721123      -0.31207587        1 
