30
Lattice="0.0 0.0 0.0 0.0 0.0 0.0 0.0 0.0 0.0" Properties=species:S:1:pos:R:3:Z:I:1 pbc="F F F"
C       0.88541680      -0.32696910       0.02063273        6 
C       0.10121971       0.82586792       0.12451445        6 
C       0.27825203      -1.66661562       0.32794200        6 
C      -1.38494812       0.71702954       0.32975700        6 
O      -0.63481584      -2.03450501      -0.59251951        8 
O       0.53987571      -2.32080282       1.30726420        8 
O      -2.03073130       0.62538760      -0.84684797        8 
O      -1.94216083       0.76892759       1.39930726        8 
C      -3.46432225       0.50722543      -0.77510955        6 
C      -1.34414450      -3.26101362      -0.32703537        6 
C       2.26856498      -0.24161225      -0.20280044        6 
C       2.82002991       1.03013885      -0.35022809        6 
C       2.03754694       2.17781675      -0.24315882        6 
C       0.66617947       2.10236569      -0.00364179        6 
H      -3.74238426      -0.39571409      -0.22892771        1 
H      -0.65182925      -4.10322864      -0.28895912        1 
H       2.50225808       3.15182004      -0.35347991        1 
H      -3.89754660       1.37583777      -0.27676361        1 
H      -3.80037589       0.44833862      -1.80788447        1 
H      -2.04017005      -3.37484223      -1.15520484        1 
H      -1.87837798      -3.19098940       0.62171895        1 
H       3.88302340       1.12566227      -0.54391236        1 
C      -0.18896337       3.34052000       0.11158291        6 
C       3.12513698      -1.48218066      -0.28191556        6 
H       3.17420871      -1.98444819       0.68735503        1 
H       4.14044698      -1.23269572      -0.59439643        1 
H       2.71998394      -2.20340465      -0.99826077        1 
H      -0.62392827       3.42578453       1.11150603        1 
H      -1.01770998       3.31705944      -0.60280454        1 
H       0.39777891       4.23938124      -0.08311405        1 
