30
Lattice="0.0 0.0 0.0 0.0 0.0 0.0 0.0 0.0 0.0" Properties=species:S:1:pos:R:3:Z:I:1 pbc="F F F"
C       0.77323114      -0.60361155       0.00970359        6 
C       0.34845698       0.73607252       0.11039265        6 
C      -0.21709839      -1.72483868      -0.00562343        6 
C      -1.10499217       1.10657350       0.24108799        6 
O      -1.37290302      -1.39471375       0.60843247        8 
O      -0.02656759      -2.82206248      -0.47829925        8 
O      -1.73503051       1.01488249      -0.94878474        8 
O      -1.63110996       1.48737936       1.25537220        8 
C      -3.14613979       1.29964220      -0.93493060        6 
C      -2.41374424      -2.38494430       0.59443731        6 
C       2.15036606      -0.90602982      -0.08203851        6 
C       3.04798603       0.16310799      -0.07506488        6 
C       2.61854559       1.48152864       0.00838692        6 
C       1.26353747       1.79625199       0.10653437        6 
H      -3.66657026       0.58867575      -0.29058034        1 
H      -2.71082408      -2.61050451      -0.43147525        1 
H       3.34959135       2.28319287       0.00029591        1 
H      -3.33197254       2.31207482      -0.57382655        1 
H      -3.47399705       1.19238610      -1.96648498        1 
H      -3.23886964      -1.94132795       1.14748521        1 
H      -2.07559269      -3.30141568       1.07951443        1 
H       4.11000275      -0.04632459      -0.13854015        1 
C       0.80292079       3.23067609       0.20858151        6 
C       2.69413630      -2.31255710      -0.17031726        6 
H       2.28443644      -2.95793431       0.60914303        1 
H       3.78127050      -2.29658997      -0.07135864        1 
H       2.43385966      -2.77986788      -1.12146153        1 
H       0.35552601       3.43073755       1.18552881        1 
H       0.04609886       3.46206328      -0.54693420        1 
H       1.63984121       3.91585090       0.06604423        1 
