30
Lattice="0.0 0.0 0.0 0.0 0.0 0.0 0.0 0.0 0.0" Properties=species:S:1:pos:R:3:Z:I:1 pbc="F F F"
C       0.94157511      -0.29420329      -0.06712190        6 
C       0.02423056       0.75855212       0.11477000        6 
C       0.51399638      -1.71597624       0.13014776        6 
C      -1.46179716       0.53364775       0.22669722        6 
O      -0.79603773      -1.90990944      -0.12940590        8 
O       1.23248482      -2.60517332       0.52526095        8 
O      -2.02175263       0.42927580      -0.99302191        8 
O      -2.09487854       0.60560780       1.25183550        8 
C      -3.44768274       0.24531853      -1.01492717        6 
C      -1.32809470      -3.20663877       0.19318058        6 
C       2.31032636      -0.01464435      -0.27369014        6 
C       2.70164717       1.32448503      -0.29003306        6 
C       1.79421615       2.35534408      -0.07750744        6 
C       0.43855365       2.09743220       0.12265925        6 
H      -3.71616822      -0.68133246      -0.50436601        1 
H      -0.81886855      -3.98256804      -0.37960610        1 
H       2.14191806       3.38300465      -0.07992370        1 
H      -3.95287372       1.08093988      -0.52768203        1 
H      -3.71717209       0.19314890      -2.06744865        1 
H      -2.38108096      -3.16015847      -0.07599681        1 
H      -1.21352511      -3.40875408       1.25910299        1 
H       3.74526851       1.56194496      -0.46471119        1 
C      -0.54450800       3.22477161       0.33017251        6 
C       3.35396602      -1.08405149      -0.49001168        6 
H       3.57335244      -1.61490316       0.43836162        1 
H       4.27533613      -0.63255201      -0.86317045        1 
H       3.02366571      -1.83956220      -1.20540322        1 
H      -1.00348166       3.17031439       1.32043908        1 
H      -1.35525630       3.18785299      -0.40407804        1 
H      -0.04873277       4.19166662       0.23335014        1 
