30
Lattice="0.0 0.0 0.0 0.0 0.0 0.0 0.0 0.0 0.0" Properties=species:S:1:pos:R:3:Z:I:1 pbc="F F F"
C      -0.58184824      -0.65081490       0.11804703        6 
C      -0.42058955       0.73739274      -0.13333270        6 
C       0.55941415      -1.59812013      -0.10394087        6 
C       0.92020061       1.38655141       0.03671516        6 
O       1.56689547      -1.02629586      -0.80394154        8 
O       0.54817734      -2.78376249       0.13905353        8 
O       1.56471863       0.86907760       1.10822188        8 
O       1.32497398       2.34888587      -0.57099778        8 
C       2.87694698       1.39289272       1.36071495        6 
C       2.66547977      -1.88529863      -1.14576275        6 
C      -1.87064526      -1.19906301       0.28470428        6 
C      -2.96208683      -0.33046854       0.16292365        6 
C      -2.80156741       1.00770466      -0.14808068        6 
C      -1.53246424       1.58076502      -0.29078561        6 
H       3.53294927       1.19321810       0.51074396        1 
H       3.14372836      -2.27355893      -0.24469020        1 
H      -3.67812006       1.63661554      -0.26069402        1 
H       2.83708410       2.46885897       1.53646491        1 
H       3.23130411       0.87197382       2.24762421        1 
H       3.35466221      -1.25930231      -1.70839457        1 
H       2.32099265      -2.72199497      -1.75542507        1 
H      -3.96234139      -0.73001499       0.29111438        1 
C      -1.42904265       3.06066291      -0.57204348        6 
C      -2.15982650      -2.65753054       0.55529717        6 
H      -1.84941384      -3.29289074      -0.27735932        1 
H      -3.23179610      -2.79307239       0.71375263        1 
H      -1.62427830      -3.02239217       1.43184070        1 
H      -0.93247207       3.24873368      -1.52499737        1 
H      -0.84431728       3.58141861       0.18979391        1 
H      -2.42615509       3.50395709      -0.60203866        1 
