30
Lattice="0.0 0.0 0.0 0.0 0.0 0.0 0.0 0.0 0.0" Properties=species:S:1:pos:R:3:Z:I:1 pbc="F F F"
C       0.98183044       0.06229569      -0.13874647        6 
C      -0.31798112       0.61408725       0.04910228        6 
C       1.20353047      -1.41324110       0.05851832        6 
C      -1.47778017      -0.21271621      -0.43926670        6 
O       0.17843660      -1.98980713       0.72508796        8 
O       2.24468375      -1.99947085      -0.13475117        8 
O      -2.65218490       0.11459290       0.14205442        8 
O      -1.38204127      -1.10643728      -1.24622605        8 
C      -3.79629991      -0.64379945      -0.28808488        6 
C       0.29475434      -3.39837458       0.97111052        6 
C       2.11799171       0.89047110      -0.15790411        6 
C       1.92195186       2.26214113       0.05195158        6 
C       0.66950942       2.78665510       0.30928747        6 
C      -0.48379560       1.98992002       0.28855360        6 
H      -3.94098938      -0.54535965      -1.36499722        1 
H       0.35133024      -3.94542355       0.02808792        1 
H       0.56570352       3.85052122       0.49381959        1 
H      -3.66644670      -1.69874869      -0.04138104        1 
H      -4.64170028      -0.22463598       0.25365457        1 
H      -0.60812706      -3.67164811       1.51347835        1 
H       1.18219350      -3.61549354       1.56775398        1 
H       2.78289250       2.92131936       0.03620446        1 
C      -1.81659005       2.68050706       0.48171612        6 
C       3.52924082       0.39545955      -0.36477350        6 
H       3.85501638      -0.24980734       0.45408913        1 
H       4.21044215       1.24643835      -0.43034194        1 
H       3.61613205      -0.20092718      -1.27314934        1 
H      -2.36628783       2.26216369       1.32504917        1 
H      -2.45980989       2.57882998      -0.39519603        1 
H      -1.65460792       3.74468206       0.66243463        1 
