30
Lattice="0.0 0.0 0.0 0.0 0.0 0.0 0.0 0.0 0.0" Properties=species:S:1:pos:R:3:Z:I:1 pbc="F F F"
C       0.10658562      -0.72108600      -0.07659424        6 
C      -1.00348980       0.14263070      -0.00068650        6 
C       1.49300421      -0.19645559      -0.33462653        6 
C      -0.82011474       1.62292888      -0.07924257        6 
O       2.27369318      -0.32754508       0.75272118        8 
O       1.88391885       0.20554219      -1.40297991        8 
O       0.36969547       2.00903856       0.42978531        8 
O      -1.63146452       2.40607627      -0.51477832        8 
C       0.69538077       3.40241697       0.29231501        6 
C       3.64404823       0.08151150       0.59384273        6 
C      -0.04997272      -2.11396810      -0.01447916        6 
C      -1.34152487      -2.61614332       0.14526675        6 
C      -2.43866359      -1.77049709       0.23484345        6 
C      -2.30539425      -0.38315858       0.15559900        6 
H       0.75740301       3.67182174      -0.76308466        1 
H       4.12506707      -0.49366528      -0.19893925        1 
H      -3.42816938      -2.19519740       0.36516709        1 
H      -0.05873153       4.02043354       0.78098274        1 
H       1.66228599       3.52212772       0.77600758        1 
H       4.11778973      -0.11343774       1.55325453        1 
H       3.69664134       1.14333065       0.34792402        1 
H      -1.48875279      -3.68996144       0.19743375        1 
C      -3.54772951       0.46947483       0.25560417        6 
C       1.12393572      -3.05874162      -0.12036472        6 
H       1.74378420      -2.83551201      -0.99343765        1 
H       0.77782782      -4.08950912      -0.21246176        1 
H       1.76397616      -2.99143964       0.76309711        1 
H      -3.77769254       0.94610662      -0.69915496        1 
H      -3.43552410       1.27559708       0.98320476        1 
H      -4.39784651      -0.14820361       0.55195836        1 
