30
Lattice="0.0 0.0 0.0 0.0 0.0 0.0 0.0 0.0 0.0" Properties=species:S:1:pos:R:3:Z:I:1 pbc="F F F"
C      -0.53996256      -0.68607446       0.07613721        6 
C      -0.57843868       0.71543550      -0.03621838        6 
C       0.76896057      -1.41358791       0.13764741        6 
C       0.69597928       1.49801692      -0.08554227        6 
O       1.54115348      -1.11356158      -0.92841601        8 
O       1.09076219      -2.19520909       0.99827351        8 
O       1.52336308       1.13975858       0.91953004        8 
O       0.96243895       2.34897973      -0.89882255        8 
C       2.82001074       1.76171504       0.92626396        6 
C       2.84216569      -1.72754389      -0.95911772        6 
C      -1.72392602      -1.44146846       0.12285868        6 
C      -2.93359073      -0.74977652       0.04699366        6 
C      -2.97311742       0.63436759      -0.06430507        6 
C      -1.80559199       1.39757335      -0.11475829        6 
H       3.34944502       1.54590858      -0.00349507        1 
H       3.41357559      -1.45347382      -0.07071349        1 
H      -3.93310127       1.13687810      -0.11335531        1 
H       2.72466763       2.84237442       1.04126127        1 
H       3.34182525       1.32965026       1.77718636        1 
H       3.31954463      -1.34600017      -1.85883503        1 
H       2.75017681      -2.81383289      -1.00420645        1 
H      -3.86239170      -1.30996844       0.07318774        1 
C      -1.89634786       2.89895587      -0.24090790        6 
C      -1.72721255      -2.94827436       0.23805006        6 
H      -1.06316811      -3.41621928      -0.49331771        1 
H      -2.73404821      -3.33632203       0.07417792        1 
H      -1.38819987      -3.26953422       1.22545495        1 
H      -1.55725680       3.23139502      -1.22438721        1 
H      -1.27256904       3.40844654       0.49742999        1 
H      -2.92728786       3.22834376      -0.09927643        1 
