30
Lattice="0.0 0.0 0.0 0.0 0.0 0.0 0.0 0.0 0.0" Properties=species:S:1:pos:R:3:Z:I:1 pbc="F F F"
C       0.07038583      -0.71472373       0.05287054        6 
C      -0.99690226       0.21260170       0.04382387        6 
C       1.48813863      -0.31377455       0.36755233        6 
C      -0.73913630       1.68480472      -0.01192599        6 
O       2.28789304      -0.44232740      -0.70775252        8 
O       1.87576887       0.00024787       1.46480181        8 
O       0.57118507       1.97161313      -0.15608700        8 
O      -1.58712430       2.54887477      -0.01088269        8 
C       0.91845117       3.36354867      -0.20996116        6 
C       3.68090394      -0.15603559      -0.48925649        6 
C      -0.16246961      -2.09545424      -0.04397336        6 
C      -1.48331744      -2.53020443      -0.15112075        6 
C      -2.53751513      -1.63059231      -0.14245329        6 
C      -2.33183242      -0.25180101      -0.05143713        6 
H       0.44787200       3.84072851      -1.07099776        1 
H       3.80919725       0.87378355      -0.15253681        1 
H      -3.55366562      -2.00293135      -0.21242339        1 
H       0.60082801       3.87016223       0.70225841        1 
H       2.00198181       3.38619672      -0.30273071        1 
H       4.16291759      -0.30790068      -1.45239696        1 
H       4.09645492      -0.83149399       0.26048959        1 
H      -1.68683404      -3.59329943      -0.22774831        1 
C      -3.55156445       0.63877406      -0.07109168        6 
C       0.96185918      -3.10541874      -0.01216465        6 
H       1.58792337      -3.02856573      -0.90437137        1 
H       0.56128268      -4.11926828       0.03794050        1 
H       1.60828563      -2.95872732       0.85760379        1 
H      -3.55080500       1.30885995      -0.93290384        1 
H      -3.60218554       1.27843584       0.81080830        1 
H      -4.45171955       0.02165996      -0.11034256        1 
