30
Lattice="0.0 0.0 0.0 0.0 0.0 0.0 0.0 0.0 0.0" Properties=species:S:1:pos:R:3:Z:I:1 pbc="F F F"
C       1.00975481      -0.11905746       0.10333188        6 
C      -0.14496770       0.69771042       0.01073793        6 
C       0.90063657      -1.60873748      -0.05190890        6 
C      -1.48998539       0.16552737       0.43187362        6 
O      -0.36832869      -2.01798618      -0.25754883        8 
O       1.83519831      -2.37393069      -0.13922291        8 
O      -2.43603480       0.36957163      -0.50726424        8 
O      -1.70384970      -0.36969749       1.49048101        8 
C      -3.75943828      -0.08543439      -0.17382468        6 
C      -0.56290856      -3.42282412      -0.48024297        6 
C       2.29342743       0.46660361       0.06071671        6 
C       2.37036102       1.85415630      -0.09979955        6 
C       1.23771451       2.63948193      -0.23580377        6 
C      -0.04316337       2.08562053      -0.16166290        6 
H      -3.75420131      -1.15944890       0.01823919        1 
H      -0.02057102      -3.74888492      -1.36907015        1 
H       1.34284509       3.71067348      -0.37147678        1 
H      -4.13281087       0.43355950       0.71076327        1 
H      -4.37324741       0.14631013      -1.04161435        1 
H      -1.63519925      -3.54505018      -0.61818738        1 
H      -0.22105797      -3.99772038       0.38158221        1 
H       3.34857347       2.32094471      -0.12980979        1 
C      -1.25109621       2.99452230      -0.21714845        6 
C       3.58595043      -0.30696262       0.16399879        6 
H       3.59010766      -0.98077278       1.02120440        1 
H       4.42088671       0.39059108       0.25802031        1 
H       3.74913320      -0.93361491      -0.71529409        1 
H      -1.91496379       2.83691657       0.63735889        1 
H      -1.84148809       2.81861934      -1.11870389        1 
H      -0.93818193       4.03973238      -0.20672310        1 
