30
Lattice="0.0 0.0 0.0 0.0 0.0 0.0 0.0 0.0 0.0" Properties=species:S:1:pos:R:3:Z:I:1 pbc="F F F"
C       0.99962773      -0.14586565       0.02011421        6 
C      -0.07193295       0.75206851      -0.09939699        6 
C       0.75807802      -1.61380630      -0.14336821        6 
C      -1.47289638       0.24788924      -0.31863110        6 
O      -0.36911150      -2.01136402       0.48656564        8 
O       1.46046825      -2.36581923      -0.77533696        8 
O      -2.20606574       0.34759762       0.80438198        8 
O      -1.91339764      -0.12032403      -1.38051364        8 
C      -3.57760739      -0.07732537       0.70104635        6 
C      -0.78608147      -3.36793558       0.24647167        6 
C       2.31298500       0.32575573       0.20468283        6 
C       2.49642273       1.70712326       0.27344788        6 
C       1.43198249       2.59329309       0.13919684        6 
C       0.12705763       2.13783735      -0.04710833        6 
H      -4.10943142       0.51960431      -0.04170820        1 
H      -1.01819200      -3.50587245      -0.81078562        1 
H       1.61723963       3.66129019       0.18375052        1 
H      -3.62781472      -1.12984843       0.41719271        1 
H      -4.00229688       0.07280011       1.69099980        1 
H      -1.67607052      -3.50852978       0.85617083        1 
H      -0.00347059      -4.06752735       0.54188168        1 
H       3.49681943       2.09630308       0.42800051        1 
C      -1.02777124       3.10154551      -0.18108790        6 
C       3.49570027      -0.60209606       0.34314686        6 
H       3.30409774      -1.39615482       1.06889641        1 
H       4.37564674      -0.04558136       0.67043100        1 
H       3.72283069      -1.09339310      -0.60494186        1 
H      -1.69167258       3.03936468       0.68576988        1 
H      -1.62865714       2.88458762      -1.06913670        1 
H      -0.66843342       4.12846984      -0.26153887        1 
