30
Lattice="0.0 0.0 0.0 0.0 0.0 0.0 0.0 0.0 0.0" Properties=species:S:1:pos:R:3:Z:I:1 pbc="F F F"
C       0.71586437       0.43363849      -0.00601253        6 
C      -0.69686502       0.43014093       0.01600579        6 
C       1.39364759      -0.88225405      -0.25955066        6 
C      -1.39675296      -0.87056175       0.30086979        6 
O       2.56950619      -1.00550595       0.38507975        8 
O       0.92277528      -1.75990651      -0.94368742        8 
O      -2.47900347      -1.05568257      -0.47852458        8 
O      -1.03016011      -1.66691158       1.13066853        8 
C      -3.19495215      -2.28846588      -0.27664969        6 
C       3.24363819      -2.26692583       0.21712728        6 
C       1.42785060       1.64394338      -0.04985840        6 
C       0.68639581       2.83061617      -0.03545796        6 
C      -0.69899890       2.82446957       0.00431689        6 
C      -1.42479856       1.62945772       0.03945975        6 
H      -2.54519975      -3.13924074      -0.48579501        1 
H       2.61663096      -3.08040823       0.58446812        1 
H      -1.23656038       3.76657639       0.02107951        1 
H      -3.55940646      -2.35679458       0.74968114        1 
H      -4.02586693      -2.25746216      -0.97809771        1 
H       4.15480004      -2.18707618       0.80582884        1 
H       3.47695022      -2.43992293      -0.83465051        1 
H       1.21317681       3.77807266      -0.06939085        1 
C      -2.93337430       1.68561782       0.13388338        6 
C       2.93351185       1.72691184      -0.14580974        6 
H       3.41044105       1.34803154       0.75957421        1 
H       3.24128739       2.76349024      -0.29308618        1 
H       3.32137152       1.13632998      -0.97901789        1 
H      -3.31324912       1.08011220       0.96057656        1 
H      -3.40293341       1.30993880      -0.77711864        1 
H      -3.26102967       2.71440338       0.29306476        1 
