30
Lattice="0.0 0.0 0.0 0.0 0.0 0.0 0.0 0.0 0.0" Properties=species:S:1:pos:R:3:Z:I:1 pbc="F F F"
C       1.00814620       0.03894671       0.08734330        6 
C      -0.24883681       0.68344113       0.02122334        6 
C       1.08814094      -1.45690738       0.03030366        6 
C      -1.47066593      -0.10366900       0.40263170        6 
O       0.05650644      -1.98097911      -0.67013082        8 
O       2.01122457      -2.12840940       0.42792758        8 
O      -2.51280248       0.12847751      -0.41964683        8 
O      -1.52061492      -0.86786409       1.33656068        8 
C      -3.72564495      -0.58390518      -0.11490079        6 
C      -0.01403618      -3.41480520      -0.72012574        6 
C       2.20056546       0.77910245      -0.00241048        6 
C       2.08645103       2.16494420      -0.15732686        6 
C       0.85307724       2.79337483      -0.22855268        6 
C      -0.34293935       2.07533857      -0.12780361        6 
H      -3.55099139      -1.66022076      -0.14684886        1 
H       0.89889534      -3.83142932      -1.14750200        1 
H       0.81046548       3.87125900      -0.34342435        1 
H      -4.09285836      -0.31044414       0.87568087        1 
H      -4.43642893      -0.28715017      -0.88310971        1 
H      -0.87078762      -3.63993572      -1.35194872        1 
H      -0.16284697      -3.81765044       0.28336579        1 
H       2.99091702       2.75870863      -0.23134744        1 
C      -1.65640795       2.82460120      -0.14063595        6 
C       3.57596338       0.15815596       0.03500476        6 
H       3.76248488      -0.33659631       0.98912798        1 
H       4.33506243       0.92715911      -0.11914416        1 
H       3.69672354      -0.60745174      -0.73470010        1 
H      -2.29023354       2.55168918       0.70681294        1 
H      -2.22903767       2.61234805      -1.04589624        1 
H      -1.47480151       3.89952436      -0.09080514        1 
