30
Lattice="0.0 0.0 0.0 0.0 0.0 0.0 0.0 0.0 0.0" Properties=species:S:1:pos:R:3:Z:I:1 pbc="F F F"
C      -0.68608858      -0.64108631      -0.03736970        6 
C      -0.39982925       0.73346594       0.10571553        6 
C       0.40320878      -1.66429684       0.01131705        6 
C       1.01352326       1.24078120       0.15417728        6 
O       1.47372315      -1.23012389       0.71098709        8 
O       0.33722821      -2.78220682      -0.44585617        8 
O       1.64324460       1.01381575      -1.01839047        8 
O       1.50649866       1.83625076       1.07880434        8 
C       3.02519057       1.40751634      -1.07218818        6 
C       2.58146579      -2.13938961       0.80935557        6 
C      -2.02489653      -1.08227213      -0.13848094        6 
C      -3.02976186      -0.11327450      -0.09520498        6 
C      -2.74038666       1.23633729       0.04415183        6 
C      -1.42487208       1.69028191       0.14771127        6 
H       3.13034487       2.47393108      -0.86868983        1 
H       2.26802072      -3.07244956       1.27938102        1 
H      -3.55149333       1.95645551       0.07016562        1 
H       3.60383752       0.84293692      -0.33859530        1 
H       3.35466455       1.17373889      -2.08213993        1 
H       3.31831030      -1.62827420       1.42494624        1 
H       2.98535372      -2.35574734      -0.18136421        1 
H      -4.06443476      -0.43150038      -0.16569844        1 
C      -1.14062866       3.16620247       0.28805757        6 
C      -2.43521795      -2.53130929      -0.26641385        6 
H      -2.10526738      -2.95876390      -1.21459593        1 
H      -3.52238596      -2.61026012      -0.20513184        1 
H      -1.99895703      -3.15220489       0.51866510        1 
H      -0.45429075       3.51926770      -0.48698925        1 
H      -0.67793212       3.38816222       1.25181056        1 
H      -2.06396903       3.74189637       0.20486329        1 
