30
Lattice="0.0 0.0 0.0 0.0 0.0 0.0 0.0 0.0 0.0" Properties=species:S:1:pos:R:3:Z:I:1 pbc="F F F"
C      -0.60729515      -0.63381100      -0.10240120        6 
C      -0.38324511       0.74412229       0.16060801        6 
C       0.48126663      -1.63808474       0.14107640        6 
C       0.98229360       1.34083534      -0.01521352        6 
O       1.57214436      -1.08960841       0.72275644        8 
O       0.37094041      -2.83674266       0.01055361        8 
O       1.56905628       0.84399632      -1.12851784        8 
O       1.44215716       2.26346365       0.61415378        8 
C       2.89298174       1.32296234      -1.40600144        6 
C       2.62079559      -2.00034214       1.08678002        6 
C      -1.91953326      -1.11621741      -0.29458498        6 
C      -2.96942975      -0.19704823      -0.18123184        6 
C      -2.74919814       1.12787151       0.14909480        6 
C      -1.45580024       1.63766156       0.31259236        6 
H       2.89602568       2.40722665      -1.52709906        1 
H       2.24902063      -2.75532597       1.78122061        1 
H      -3.59570950       1.79763146       0.25608512        1 
H       3.57022456       1.05138817      -0.59337445        1 
H       3.19065118       0.83292327      -2.33057457        1 
H       3.38244790      -1.38506848       1.56075755        1 
H       3.02140506      -2.49610609       0.20074132        1 
H      -3.98539242      -0.54564470      -0.33207615        1 
C      -1.28237669       3.10942398       0.60178268        6 
C      -2.27627468      -2.55461077      -0.58908310        6 
H      -1.69855131      -2.95768001      -1.42066581        1 
H      -3.33953316      -2.62417264      -0.82952300        1 
H      -2.07142800      -3.20216878       0.26660056        1 
H      -0.67485351       3.60482978      -0.15934570        1 
H      -0.77669152       3.27029290       1.55474055        1 
H      -2.25702759       3.60003231       0.63444415        1 
