30
Lattice="0.0 0.0 0.0 0.0 0.0 0.0 0.0 0.0 0.0" Properties=species:S:1:pos:R:3:Z:I:1 pbc="F F F"
C       0.09739297      -0.70454600      -0.02920896        6 
C      -1.00142790       0.18761392      -0.06534923        6 
C       1.49472817      -0.26637768      -0.38306745        6 
C      -0.79543979       1.66754995       0.03411568        6 
O       2.34462401      -0.42469791       0.64976578        8 
O       1.82517892       0.12113098      -1.47518098        8 
O       0.50561112       2.00140578       0.15004530        8 
O      -1.67631472       2.49501797       0.11048423        8 
C       0.79719490       3.40092144       0.28102539        6 
C       3.72082236      -0.10115416       0.38180821        6 
C      -0.09439167      -2.09003905       0.09140935        6 
C      -1.40349718      -2.56530771       0.17876911        6 
C      -2.48531136      -1.70254193       0.11643367        6 
C      -2.32165289      -0.31942909       0.00174721        6 
H       0.43696239       3.94806825      -0.59113747        1 
H       4.11276952      -0.73252832      -0.41741270        1 
H      -3.49072208      -2.10614622       0.16447975        1 
H       0.32942866       3.80597552       1.17970336        1 
H       1.88098520       3.46312136       0.35020979        1 
H       4.24962381      -0.28830414       1.31373466        1 
H       3.81497817       0.94561471       0.08894919        1 
H      -1.57417053      -3.63265404       0.27392299        1 
C      -3.57106772       0.52852701      -0.03480350        6 
C       1.05619192      -3.07117343       0.08956992        6 
H       1.70423847      -2.92824933      -0.77987345        1 
H       0.68066220      -4.09527207       0.05820557        1 
H       1.67582706      -2.95891060       0.98186924        1 
H      -3.58879515       1.19284545      -0.89939884        1 
H      -3.64809906       1.17178241       0.84394325        1 
H      -4.44889557      -0.12024775      -0.07109795        1 
