30
Lattice="0.0 0.0 0.0 0.0 0.0 0.0 0.0 0.0 0.0" Properties=species:S:1:pos:R:3:Z:I:1 pbc="F F F"
C       0.63419221       0.44240679      -0.12909776        6 
C      -0.74255727       0.44327694       0.14060489        6 
C       1.36695530      -0.86938463      -0.10083839        6 
C      -1.52148921      -0.83866142       0.27144321        6 
O       2.37963977      -0.83550909       0.79116229        8 
O       1.09711265      -1.84859023      -0.75305316        8 
O      -1.74461778      -1.39456208      -0.92702330        8 
O      -1.99000733      -1.25068927       1.30682218        8 
C      -2.46805836      -2.63993388      -0.92805490        6 
C       3.14837500      -2.04721675       0.91701691        6 
C       1.32651058       1.64876884      -0.32768764        6 
C       0.59331596       2.83380438      -0.25882728        6 
C      -0.76695556       2.83244170       0.03303048        6 
C      -1.46434082       1.64228310       0.23674100        6 
H      -1.89264286      -3.40574760      -0.40602390        1 
H       2.51083073      -2.86803424       1.24863761        1 
H      -1.30301541       3.77391172       0.09022156        1 
H      -3.43916518      -2.52080457      -0.44536703        1 
H      -2.58526084      -2.90239234      -1.97677610        1 
H       3.90999399      -1.82878279       1.66201210        1 
H       3.60591115      -2.31098952      -0.03784820        1 
H       1.09939778       3.77723051      -0.43350207        1 
C      -2.94636487       1.64796802       0.52883388        6 
C       2.80491628       1.68875633      -0.63228039        6 
H       3.39730053       1.54207023       0.27406925        1 
H       3.07673061       2.65219514      -1.06748234        1 
H       3.09383946       0.90759455      -1.33969233        1 
H      -3.15582088       1.22415408       1.51385490        1 
H      -3.49840971       1.05019328      -0.20324509        1 
H      -3.34103780       2.66451845       0.49769347        1 
