30
Lattice="0.0 0.0 0.0 0.0 0.0 0.0 0.0 0.0 0.0" Properties=species:S:1:pos:R:3:Z:I:1 pbc="F F F"
C       0.71799416       0.43886302      -0.06289248        6 
C      -0.69488760       0.43153927      -0.02846975        6 
C       1.37295811      -0.90484478       0.05489403        6 
C      -1.46957898      -0.81492959      -0.38163893        6 
O       2.72090607      -0.86753367       0.03188374        8 
O       0.76656041      -1.94824249       0.15090739        8 
O      -2.21698527      -1.25261715       0.64794874        8 
O      -1.46085465      -1.31840852      -1.47634010        8 
C      -2.97914364      -2.44915029       0.39906090        6 
C       3.38137656      -2.14220532       0.13400123        6 
C       1.41548013       1.66683322      -0.00648100        6 
C       0.65600234       2.83823090       0.08191967        6 
C      -0.72949996       2.81715553       0.13694912        6 
C      -1.43611723       1.61574537       0.06771384        6 
H      -3.68472138      -2.29076029      -0.41827946        1 
H       3.11431341      -2.63748950       1.06847982        1 
H      -1.27686543       3.75082995       0.21411373        1 
H      -2.30931165      -3.27151451       0.14454871        1 
H      -3.50693125      -2.65505759       1.32775121        1 
H       4.44530543      -1.91658565       0.10778303        1 
H       3.10215619      -2.78358559      -0.70308749        1 
H       1.17171818       3.79132544       0.11827062        1 
C      -2.94838799       1.61789455       0.06094634        6 
C       2.91918708       1.81038418      -0.03021633        6 
H       3.38156648       1.35966425       0.85001162        1 
H       3.18620899       2.86853981      -0.05566973        1 
H       3.35791258       1.31943029      -0.89954394        1 
H      -3.35007804       1.12738783       0.95047150        1 
H      -3.34375749       1.08481367      -0.80878492        1 
H      -3.32894833       2.63983927       0.02826939        1 
