30
Lattice="0.0 0.0 0.0 0.0 0.0 0.0 0.0 0.0 0.0" Properties=species:S:1:pos:R:3:Z:I:1 pbc="F F F"
C       0.76890997       0.44870305       0.16108152        6 
C      -0.61063067       0.41817941      -0.11251424        6 
C       1.57537648      -0.81858313       0.26527300        6 
C      -1.31726603      -0.90495035      -0.01348466        6 
O       1.76856981      -1.36018982      -0.94537130        8 
O       2.09580785      -1.21866780       1.27980387        8 
O      -2.47541167      -0.78952951       0.67187311        8 
O      -0.92068030      -1.96165644      -0.44438637        8 
C      -3.23997810      -1.99947267       0.82839219        6 
C       2.45351253      -2.62593554      -0.97473126        6 
C       1.46526653       1.66136703       0.25361092        6 
C       0.74679868       2.83638892       0.03212269        6 
C      -0.60699550       2.80898773      -0.28208417        6 
C      -1.32183868       1.61167632      -0.34253034        6 
H      -3.53283262      -2.39455301      -0.14592899        1 
H       3.42541262      -2.55108865      -0.48550147        1 
H      -1.12631782       3.74102371      -0.47794181        1 
H      -2.65720268      -2.75240392       1.36044376        1 
H      -4.11631152      -1.71298213       1.40556699        1 
H       2.56694656      -2.86747329      -2.02902596        1 
H       1.84610097      -3.38194411      -0.47473998        1 
H       1.26281937       3.78893874       0.08854572        1 
C      -2.79609146       1.65315539      -0.67685960        6 
C       2.94224754       1.69935256       0.56177016        6 
H       3.14609352       1.29413701       1.55554620        1 
H       3.31799297       2.72248168       0.51830950        1 
H       3.51273060       1.09862358      -0.15306995        1 
H      -3.40804481       1.56993648       0.22426132        1 
H      -3.08994103       0.83848879      -1.34119887        1 
H      -3.03994223       2.59625190      -1.17015723        1 
