30
Lattice="0.0 0.0 0.0 0.0 0.0 0.0 0.0 0.0 0.0" Properties=species:S:1:pos:R:3:Z:I:1 pbc="F F F"
C      -0.41823298      -0.70260399       0.11289024        6 
C      -0.69191712       0.67482720      -0.00826474        6 
C       0.98751671      -1.22882524       0.19406512        6 
C       0.42026070       1.67236155      -0.00019323        6 
O       1.64057792      -1.04055978      -0.97198351        8 
O       1.45702562      -1.80547637       1.14243885        8 
O       1.45483231       1.25471149       0.76029346        8 
O       0.40927374       2.74228783      -0.56293398        8 
C       2.61966770       2.09507962       0.77597648        6 
C       3.00774940      -1.48837691      -1.00185278        6 
C      -1.45176179      -1.65268096       0.13098075        6 
C      -2.76223820      -1.18598049       0.02872510        6 
C      -3.03926149       0.16945620      -0.08516325        6 
C      -2.02470592       1.12819845      -0.11176943        6 
H       3.03883393       2.17842357      -0.22844772        1 
H       3.59470286      -0.95491759      -0.25211874        1 
H      -4.07089419       0.49783157      -0.15341303        1 
H       2.36887699       3.09040856       1.14475916        1 
H       3.31938487       1.60202551       1.44723950        1 
H       3.36522543      -1.26111432      -2.00364084        1 
H       3.06480837      -2.56008117      -0.80596652        1 
H      -3.57945215      -1.89977091       0.03644354        1 
C      -2.40834911       2.58358958      -0.23300358        6 
C      -1.18023734      -3.13460904       0.24362441        6 
H      -0.49988100      -3.47996456      -0.54050477        1 
H      -2.10865842      -3.70100861       0.15197166        1 
H      -0.71784090      -3.38039349       1.20186037        1 
H      -2.09703499       2.99613927      -1.19433584        1 
H      -1.93541319       3.19824762       0.53561765        1 
H      -3.49096162       2.68763951      -0.14047320        1 
