30
Lattice="0.0 0.0 0.0 0.0 0.0 0.0 0.0 0.0 0.0" Properties=species:S:1:pos:R:3:Z:I:1 pbc="F F F"
C       0.01171798      -0.79608622       0.12304599        6 
C      -0.92214546       0.23945977       0.00166837        6 
C       1.47027705      -0.49218357       0.32313507        6 
C      -0.50678382       1.64835694       0.30757073        6 
O       2.11462302      -0.44388816      -0.85639368        8 
O       2.01487508      -0.37837888       1.39409041        8 
O       0.38116092       2.11805858      -0.59071027        8 
O      -0.87424482       2.26876453       1.27441056        8 
C       0.92667899       3.42281173      -0.31137655        6 
C       3.53157865      -0.19492263      -0.79295647        6 
C      -0.38019111      -2.14015074       0.01345048        6 
C      -1.72777703      -2.40533504      -0.22576295        6 
C      -2.65641637      -1.37701184      -0.35409395        6 
C      -2.28179149      -0.04086968      -0.22160161        6 
H       0.13198889       4.16935895      -0.28000686        1 
H       3.72780328       0.76561789      -0.31404454        1 
H      -3.69604026      -1.61779962      -0.54948826        1 
H       1.45093723       3.41405630       0.64546717        1 
H       1.61480648       3.62805020      -1.12821003        1 
H       3.86844911      -0.18365229      -1.82696475        1 
H       4.03323870      -0.98493994      -0.23170054        1 
H      -2.05572002      -3.43551135      -0.31735213        1 
C      -3.31318889       1.05742983      -0.31217878        6 
C       0.61699698      -3.26435765       0.15550658        6 
H       1.42680636      -3.17488883      -0.57463954        1 
H       0.13395809      -4.23086135       0.00294239        1 
H       1.07050147      -3.26652253       1.15084571        1 
H      -3.00262278       1.84765286      -1.00142878        1 
H      -3.47452813       1.52328283       0.66331824        1 
H      -4.26661022       0.66022861      -0.66492397        1 
