30
Lattice="0.0 0.0 0.0 0.0 0.0 0.0 0.0 0.0 0.0" Properties=species:S:1:pos:R:3:Z:I:1 pbc="F F F"
C      -0.34215203      -0.71680730      -0.11316716        6 
C      -0.73910371       0.63203572       0.01629642        6 
C       1.10147070      -1.13403362      -0.18609920        6 
C       0.26603185       1.73611019      -0.03875581        6 
O       1.70512897      -0.98926501       1.01153590        8 
O       1.62955417      -1.62623308      -1.15113856        8 
O       1.42132658       1.33807549      -0.61284888        8 
O       0.08245394       2.87666921       0.32115246        8 
C       2.46470670       2.32016188      -0.70549086        6 
C       3.09586220      -1.35469782       1.05620563        6 
C      -1.28335150      -1.75713896      -0.13577700        6 
C      -2.63150569      -1.41591033      -0.02813855        6 
C      -3.03189798      -0.09386334       0.09692580        6 
C      -2.11238926       0.95692888       0.12204841        6 
H       2.12345137       3.18510295      -1.27554628        1 
H       3.22931632      -2.39675640       0.76255217        1 
H      -4.08914822       0.13489382       0.17415213        1 
H       2.77185622       2.64456281       0.29041958        1 
H       3.28304356       1.82102362      -1.21980624        1 
H       3.40298088      -1.20246524       2.08844675        1 
H       3.67336140      -0.71634812       0.38501620        1 
H      -3.37909229      -2.20248216      -0.03960045        1 
C      -2.64443104       2.36473928       0.24382248        6 
C      -0.87893494      -3.20752440      -0.26515751        6 
H      -0.43445167      -3.40837203      -1.24262627        1 
H      -1.74721117      -3.85685338      -0.14105032        1 
H      -0.13901193      -3.48988610       0.48939245        1 
H      -2.28409753       3.00793588      -0.56114608        1 
H      -2.32454516       2.83346450       1.17565949        1 
H      -3.73578010       2.34898959       0.21424692        1 
