30
Lattice="0.0 0.0 0.0 0.0 0.0 0.0 0.0 0.0 0.0" Properties=species:S:1:pos:R:3:Z:I:1 pbc="F F F"
C       0.94513524       0.27397615      -0.05319111        6 
C      -0.41887062       0.62637151      -0.04640398        6 
C       1.35121635      -1.16850057      -0.15278386        6 
C      -1.41512096      -0.46357872      -0.30536173        6 
O       0.80435419      -1.89922421       0.84111365        8 
O       2.11185624      -1.61433942      -0.97516026        8 
O      -2.54920435      -0.31321177       0.40728484        8 
O      -1.22961944      -1.39635527      -1.05250036        8 
C      -3.55991298      -1.31796301       0.20389005        6 
C       0.98215835      -3.32429624       0.74033660        6 
C       1.95050715       1.24178116       0.06989223        6 
C       1.54856659       2.57331822       0.19059133        6 
C       0.20590130       2.92851639       0.17824215        6 
C      -0.80859032       1.97504606       0.05901663        6 
H      -3.87316593      -1.33940510      -0.84106457        1 
H       0.49261812      -3.69038423      -0.16383409        1 
H      -0.06757460       3.97544277       0.25392851        1 
H      -3.17974472      -2.30114042       0.48458537        1 
H      -4.38743779      -1.02815617       0.84770950        1 
H       0.50945508      -3.73871252       1.62828440        1 
H       2.04163090      -3.58172082       0.71242961        1 
H       2.30396668       3.34521393       0.29129238        1 
C      -2.24690782       2.44032902       0.01839609        6 
C       3.41563603       0.87756977       0.08321948        6 
H       3.63095529       0.10345650       0.82489427        1 
H       4.02424294       1.75178446       0.31973270        1 
H       3.72925677       0.48275968      -0.88523125        1 
H      -2.78139148       2.15821167       0.92747422        1 
H      -2.79500508       2.00431932      -0.81976671        1 
H      -2.28425539       3.52653130      -0.08201210        1 
