30
Lattice="0.0 0.0 0.0 0.0 0.0 0.0 0.0 0.0 0.0" Properties=species:S:1:pos:R:3:Z:I:1 pbc="F F F"
C       0.17177315      -0.67117298      -0.00729892        6 
C      -0.99834193       0.12680056       0.11200794        6 
C       1.51148627      -0.13968207       0.42900165        6 
C      -0.93275413       1.61696101      -0.06613653        6 
O       2.47720592      -0.38482786      -0.48041648        8 
O       1.70684022       0.43120130       1.47196476        8 
O       0.32521977       2.07674111      -0.20605680        8 
O      -1.89340506       2.33761121      -0.22597976        8 
C       0.46356723       3.47994959      -0.47562416        6 
C       3.80076235       0.04641229      -0.11859094        6 
C       0.07966021      -2.06167315      -0.19167045        6 
C      -1.19460041      -2.63361471      -0.24760423        6 
C      -2.33412987      -1.86999221      -0.07378539        6 
C      -2.27343604      -0.48293921       0.09578909        6 
H      -0.03117885       3.74023285      -1.41269413        1 
H       3.81522247       1.12366638       0.05292399        1 
H      -3.30532374      -2.35261818      -0.08311709        1 
H       0.03180858       4.06909628       0.33457167        1 
H       1.53524060       3.65347292      -0.54444227        1 
H       4.43289493      -0.21727710      -0.96368734        1 
H       4.13570508      -0.46405120       0.78611426        1 
H      -1.28701386      -3.70495353      -0.39202359        1 
C      -3.58470260       0.25356812       0.24136998        6 
C       1.28342129      -2.97499857      -0.27118972        6 
H       1.87097665      -2.78761258      -1.17170436        1 
H       0.96075178      -4.01747006      -0.27976052        1 
H       1.95129759      -2.84106416       0.58373480        1 
H      -3.82106088       0.83307838      -0.65340355        1 
H      -3.56950301       0.96195746       1.06956126        1 
H      -4.38642580      -0.46896304       0.41020563        1 
