30
Lattice="0.0 0.0 0.0 0.0 0.0 0.0 0.0 0.0 0.0" Properties=species:S:1:pos:R:3:Z:I:1 pbc="F F F"
C       0.82706747       0.38955316       0.14773058        6 
C      -0.57155406       0.50309140      -0.02841381        6 
C       1.50259223      -0.95686175       0.18600998        6 
C      -1.36492550      -0.74687015       0.21174546        6 
O       1.39083457      -1.57157367      -1.00843442        8 
O       2.19323529      -1.35760728       1.09016419        8 
O      -2.69923424      -0.57444402       0.12248501        8 
O      -0.88096554      -1.82813240       0.46511770        8 
C      -3.50269528      -1.74615665       0.35273850        6 
C       1.89896588      -2.91535815      -1.06998400        6 
C       1.66488082       1.51041030       0.14879315        6 
C       1.06880584       2.75785590      -0.04465303        6 
C      -0.29722314       2.87870560      -0.25150977        6 
C      -1.15494607       1.77407803      -0.23768863        6 
H      -3.26158264      -2.52294271      -0.37417968        1 
H       2.95650421      -2.94408997      -0.80352829        1 
H      -0.72146775       3.86293472      -0.41698498        1 
H      -3.33545139      -2.13244529       1.35903627        1 
H      -4.53217377      -1.41469364       0.23414035        1 
H       1.75291912      -3.23351827      -2.10008418        1 
H       1.33091020      -3.55091866      -0.38825990        1 
H       1.69064399       3.64672211      -0.05131166        1 
C      -2.62884076       2.03905405      -0.45106108        6 
C       3.15940577       1.39318643       0.32756556        6 
H       3.40665252       0.98567133       1.30958673        1 
H       3.63427995       2.36970829       0.22156495        1 
H       3.59959522       0.72070562      -0.41443248        1 
H      -3.21312183       1.81700313       0.44419829        1 
H      -3.04112844       1.42581303      -1.25287023        1 
H      -2.77611163       3.08996125      -0.70636771        1 
