30
Lattice="0.0 0.0 0.0 0.0 0.0 0.0 0.0 0.0 0.0" Properties=species:S:1:pos:R:3:Z:I:1 pbc="F F F"
C       0.74137054       0.36756493      -0.11049886        6 
C      -0.66876810       0.38846787       0.06263679        6 
C       1.40203199      -0.97200167       0.08719630        6 
C      -1.49843235      -0.80023602      -0.35980680        6 
O       2.73601784      -0.88258965       0.28932690        8 
O       0.83288191      -2.03735753       0.09841189        8 
O      -2.42112768      -1.13551720       0.56648601        8 
O      -1.35111029      -1.39042179      -1.39803572        8 
C      -3.25397631      -2.26303595       0.23782304        6 
C       3.41374683      -2.13246398       0.50953698        6 
C       1.46394741       1.57675122      -0.16660379        6 
C       0.74819057       2.77009685      -0.01284062        6 
C      -0.61521501       2.78182272       0.22428573        6 
C      -1.35945450       1.59836445       0.23673100        6 
H      -3.83068327      -2.06370642      -0.66728734        1 
H       3.01779085      -2.63065081       1.39564454        1 
H      -1.12718756       3.72901810       0.35739840        1 
H      -2.64115480      -3.15227337       0.08491822        1 
H      -3.91545088      -2.39247605       1.09183148        1 
H       4.46026598      -1.87046216       0.65065585        1 
H       3.29160668      -2.78909459      -0.35296534        1 
H       1.28555704       3.71049199      -0.06816752        1 
C      -2.86466031       1.67878645       0.37251302        6 
C       2.95332884       1.69081397      -0.40187547        6 
H       3.52109537       1.44534222       0.49787416        1 
H       3.19514045       2.71482861      -0.69347892        1 
H       3.29646315       1.01641565      -1.18607027        1 
H      -3.21207138       1.18089156       1.27906168        1 
H      -3.37230247       1.19943340      -0.46932043        1 
H      -3.18385654       2.72191315       0.40265869        1 
