30
Lattice="0.0 0.0 0.0 0.0 0.0 0.0 0.0 0.0 0.0" Properties=species:S:1:pos:R:3:Z:I:1 pbc="F F F"
C       0.75036885       0.49292395      -0.09276679        6 
C      -0.62408745       0.49792220       0.15653284        6 
C       1.46310148      -0.82062599      -0.25689669        6 
C      -1.36760496      -0.80608798       0.25514638        6 
O       1.80575460      -1.34425897       0.93069427        8 
O       1.70449908      -1.33988144      -1.32038257        8 
O      -2.02070704      -1.07076803      -0.89300796        8 
O      -1.40651594      -1.51874026       1.22796765        8 
C      -2.79168816      -2.28836801      -0.92023355        6 
C       2.42712866      -2.64466921       0.89688363        6 
C       1.46499544       1.69054622      -0.22608027        6 
C       0.75550886       2.88349004      -0.08847800        6 
C      -0.61476596       2.88840726       0.16271692        6 
C      -1.33566357       1.70020040       0.27685679        6 
H      -2.14558511      -3.15060399      -0.75019451        1 
H       1.74521497      -3.37367096       0.45667795        1 
H      -1.13636300       3.83418168       0.26521785        1 
H      -3.56958373      -2.26385036      -0.15513609        1 
H      -3.23028008      -2.32865687      -1.91452319        1 
H       2.63154757      -2.89236900       1.93559266        1 
H       3.34915351      -2.61236435       0.31487901        1 
H       1.28502058       3.82581927      -0.18006465        1 
C      -2.82695304       1.70171836       0.51323341        6 
C       2.94561537       1.67677198      -0.51423648        6 
H       3.49210273       1.11698445       0.25100109        1 
H       3.34756540       2.69055525      -0.54151589        1 
H       3.15237284       1.20069521      -1.47691940        1 
H      -3.09989791       1.05527421       1.35241133        1 
H      -3.36191184       1.33685245      -0.36867704        1 
H      -3.18613451       2.70807174       0.73420561        1 
