30
Lattice="0.0 0.0 0.0 0.0 0.0 0.0 0.0 0.0 0.0" Properties=species:S:1:pos:R:3:Z:I:1 pbc="F F F"
C      -0.34689200      -0.71527758       0.12639719        6 
C      -0.70970627       0.64225766      -0.02975403        6 
C       1.08637786      -1.17044488       0.14592937        6 
C       0.31436722       1.72549157       0.08072536        6 
O       1.67145045      -0.95867502      -1.05185527        8 
O       1.61347352      -1.76228551       1.05465695        8 
O       1.46849713       1.27708698       0.62026890        8 
O       0.14174889       2.89244901      -0.18960172        8 
C       2.51864058       2.24245740       0.78432838        6 
C       3.04794877      -1.36165261      -1.15261441        6 
C      -1.31370107      -1.73155823       0.16326100        6 
C      -2.65264715      -1.35744165       0.04119863        6 
C      -3.01848552      -0.03019905      -0.12033213        6 
C      -2.07337277       0.99821958      -0.15581715        6 
H       2.82247429       2.64343884      -0.18418669        1 
H       3.66054257      -0.78070935      -0.46054722        1 
H      -4.06881148       0.22268606      -0.21506222        1 
H       2.18633504       3.06123158       1.42377012        1 
H       3.33647944       1.69885122       1.25224337        1 
H       3.33554452      -1.15777330      -2.18166835        1 
H       3.15601332      -2.42264882      -0.92377126        1 
H      -3.41964909      -2.12482106       0.06314126        1 
C      -2.57455818       2.41376866      -0.31061381        6 
C      -0.95375597      -3.19248564       0.30671223        6 
H      -0.24022692      -3.51039860      -0.45900438        1 
H      -1.84619288      -3.81305482       0.20959606        1 
H      -0.49364441      -3.39516580       1.27590806        1 
H      -2.18701426       2.88106715      -1.21706821        1 
H      -2.25843534       3.04971208       0.51849033        1 
H      -3.66561245       2.41363463      -0.35331325        1 
