30
Lattice="0.0 0.0 0.0 0.0 0.0 0.0 0.0 0.0 0.0" Properties=species:S:1:pos:R:3:Z:I:1 pbc="F F F"
C       0.79861744       0.42931917      -0.14478105        6 
C      -0.58279174       0.41199274       0.13391172        6 
C       1.61411787      -0.83313583      -0.22093227        6 
C      -1.34007330      -0.88806492       0.03391128        6 
O       1.60523503      -1.48398798       0.94898555        8 
O       2.30955304      -1.14520981      -1.16037337        8 
O      -2.41819957      -0.73539205      -0.77084666        8 
O      -1.05518585      -1.94644105       0.53710320        8 
C      -3.24064044      -1.90252487      -0.95182470        6 
C       2.29986364      -2.74346206       0.98636494        6 
C       1.49595877       1.64364859      -0.25543025        6 
C       0.78299726       2.82264028      -0.03395841        6 
C      -0.56731855       2.80442682       0.29088232        6 
C      -1.28520450       1.60989008       0.36001519        6 
H      -2.66214359      -2.71136092      -1.40021772        1 
H       1.84177011      -3.44182477       0.28433942        1 
H      -1.08121815       3.73957216       0.48666386        1 
H      -3.64401429      -2.23857947       0.00510160        1 
H      -4.04203233      -1.58932597      -1.61738714        1 
H       2.18613195      -3.10305436       2.00614636        1 
H       3.35308752      -2.61094159       0.73461081        1 
H       1.30369238       3.77197887      -0.09923986        1 
C      -2.75919586       1.65477541       0.69582397        6 
C       2.97029065       1.69680839      -0.57744082        6 
H       3.55534250       1.07680052       0.10754767        1 
H       3.33715955       2.72160143      -0.50427691        1 
H       3.16571945       1.32419440      -1.58485242        1 
H      -3.06154108       0.82190474       1.33349973        1 
H      -3.37057483       1.60873530      -0.20852890        1 
H      -2.99473783       2.58277299       1.22086492        1 
