30
Lattice="0.0 0.0 0.0 0.0 0.0 0.0 0.0 0.0 0.0" Properties=species:S:1:pos:R:3:Z:I:1 pbc="F F F"
C       0.85744159      -0.51780402       0.02957227        6 
C       0.22889687       0.74189302       0.12638157        6 
C       0.06154084      -1.78505185       0.05348196        6 
C      -1.26262922       0.90824615       0.27055125        6 
O      -1.22988819      -1.57678533       0.38347870        8 
O       0.49340716      -2.89324380      -0.17166910        8 
O      -1.86983661       0.87657348      -0.93330719        8 
O      -1.83090512       1.13778273       1.30772950        8 
C      -3.30056622       1.02976820      -0.91821675        6 
C      -2.08567644      -2.72969050       0.41270002        6 
C       2.26636181      -0.59356086      -0.08460952        6 
C       2.98103077       0.60579235      -0.10476123        6 
C       2.35030215       1.83932316      -0.01668298        6 
C       0.96490613       1.93375942       0.10412995        6 
H      -3.76118161       0.21727965      -0.35330511        1 
H      -2.14838502      -3.18283223      -0.57808626        1 
H       2.94332902       2.74738067      -0.04201325        1 
H      -3.58108805       1.98277724      -0.46718919        1 
H      -3.60769415       0.99249979      -1.96107815        1 
H      -3.05750311      -2.35664915       0.72891803        1 
H      -1.70960920      -3.46727620       1.12276746        1 
H       4.06117077       0.56598935      -0.19151116        1 
C       0.28461569       3.27842413       0.20678644        6 
C       3.04128184      -1.88655834      -0.17605843        6 
H       2.83432525      -2.54497102       0.66984688        1 
H       4.11136428      -1.67102827      -0.19702487        1 
H       2.77770638      -2.45274286      -1.07081370        1 
H      -0.22063328       3.39167381       1.16923722        1 
H      -0.47126086       3.40162062      -0.57452817        1 
H       1.00922013       4.08718545       0.10210044        1 
