30
Lattice="0.0 0.0 0.0 0.0 0.0 0.0 0.0 0.0 0.0" Properties=species:S:1:pos:R:3:Z:I:1 pbc="F F F"
C       0.96793778      -0.10743251       0.01317109        6 
C      -0.09244754       0.79289982      -0.12850945        6 
C       0.72300695      -1.56174116      -0.26639714        6 
C      -1.48789126       0.26818871      -0.32594125        6 
O      -0.15006638      -2.10160252       0.60968844        8 
O       1.18689575      -2.16288725      -1.20311752        8 
O      -2.17297581       0.26849604       0.83191126        8 
O      -1.96164770      -0.05995998      -1.38670005        8 
C      -3.52867948      -0.21277858       0.76310342        6 
C      -0.56970040      -3.45284663       0.33065760        6 
C       2.27762620       0.34793748       0.22783315        6 
C       2.47161679       1.72517879       0.32702186        6 
C       1.41364416       2.62049054       0.18324431        6 
C       0.11098065       2.17635777      -0.04209222        6 
H      -4.12073040       0.40406395       0.08502488        1 
H      -1.06448902      -3.49935237      -0.64072330        1 
H       1.60321913       3.68624799       0.25365413        1 
H      -3.54490414      -1.24698442       0.41533490        1 
H      -3.91111330      -0.14441928       1.77898453        1 
H      -1.26159973      -3.71017288       1.12965998        1 
H       0.28728650      -4.12751048       0.33257896        1 
H       3.47086722       2.10545379       0.50960512        1 
C      -1.04286522       3.14030860      -0.17625628        6 
C       3.43169083      -0.61767712       0.34305756        6 
H       3.21205055      -1.42206579       1.05080922        1 
H       4.33272823      -0.10565173       0.68463790        1 
H       3.64313638      -1.08694474      -0.62115071        1 
H      -1.74563065       3.02556587       0.65424323        1 
H      -1.59951137       2.96836338      -1.10222132        1 
H      -0.69011478       4.17264687      -0.18163070        1 
