30
Lattice="0.0 0.0 0.0 0.0 0.0 0.0 0.0 0.0 0.0" Properties=species:S:1:pos:R:3:Z:I:1 pbc="F F F"
C       0.06651996      -0.72236734       0.06900694        6 
C      -0.99445837       0.20803799       0.02072388        6 
C       1.48901504      -0.31317377       0.34806450        6 
C      -0.72983386       1.67864764       0.02124715        6 
O       2.25335534      -0.41872574      -0.75428099        8 
O       1.91196620      -0.02528389       1.43995994        8 
O       0.56618935       1.96457196      -0.22484032        8 
O      -1.56343388       2.54400512       0.16583414        8 
C       0.92986589       3.35352990      -0.18847118        6 
C       3.64922940      -0.11671114      -0.58016804        6 
C      -0.17034799      -2.10356223      -0.00453287        6 
C      -1.49040018      -2.53329224      -0.13586434        6 
C      -2.53960201      -1.62773485      -0.18225329        6 
C      -2.32881783      -0.24921619      -0.10694154        6 
H       0.39374601       3.90736035      -0.96049644        1 
H       3.77521822       0.90978802      -0.23242534        1 
H      -3.55483061      -1.99608287      -0.28105256        1 
H       0.70023886       3.78033418       0.78862029        1 
H       2.00132771       3.37583606      -0.37437366        1 
H       4.09877405      -0.24709654      -1.56193603        1 
H       4.10051899      -0.79721104       0.14385413        1 
H      -1.69797742      -3.59670164      -0.19554319        1 
C      -3.53770496       0.65327990      -0.18083566        6 
C       0.95131726      -3.11378782       0.06574130        6 
H       1.59610171      -3.04955639      -0.81445865        1 
H       0.54963179      -4.12697252       0.11995888        1 
H       1.57907378      -2.95503978       0.94696785        1 
H      -3.45775049       1.37591874      -0.99505930        1 
H      -3.66014551       1.23713292       0.73275417        1 
H      -4.43475243       0.05031266      -0.33613259        1 
