30
Lattice="0.0 0.0 0.0 0.0 0.0 0.0 0.0 0.0 0.0" Properties=species:S:1:pos:R:3:Z:I:1 pbc="F F F"
C       0.89090983      -0.36041908       0.02550622        6 
C       0.11400157       0.79853804      -0.10877539        6 
C       0.29307052      -1.70365324      -0.28186218        6 
C      -1.38033254       0.73027779      -0.27423548        6 
O      -0.81572200      -1.95886546       0.43865999        8 
O       0.72874651      -2.46015525      -1.11655809        8 
O      -1.99630671       0.58514749       0.91126673        8 
O      -1.96487979       0.90490229      -1.31679126        8 
C      -3.43342588       0.51590947       0.87085882        6 
C      -1.51611254      -3.17689777       0.11758305        6 
C       2.27763060      -0.27393992       0.24498885        6 
C       2.83494177       0.99869786       0.35821806        6 
C       2.06258289       2.14750152       0.20981109        6 
C       0.69106320       2.07470685      -0.02787832        6 
H      -3.85125294       1.42143045       0.42822629        1 
H      -1.86870303      -3.14928729      -0.91474287        1 
H       2.53436846       3.12116933       0.28909978        1 
H      -3.75275655      -0.34871216       0.28616302        1 
H      -3.74655474       0.41338966       1.90737205        1 
H      -2.35406463      -3.21648628       0.81005037        1 
H      -0.86422107      -4.04081986       0.25257210        1 
H       3.89771681       1.09281208       0.55362821        1 
C      -0.14829002       3.31984829      -0.18253505        6 
C       3.14594318      -1.50358654       0.36265923        6 
H       2.71677128      -2.23794179       1.04983225        1 
H       4.13812814      -1.23598447       0.73018282        1 
H       3.25338969      -1.99930854      -0.60453593        1 
H      -0.97456834       3.33325611       0.53510529        1 
H      -0.58781017       3.37588877      -1.18185729        1 
H       0.45293189       4.21540518      -0.01964623        1 
