30
Lattice="0.0 0.0 0.0 0.0 0.0 0.0 0.0 0.0 0.0" Properties=species:S:1:pos:R:3:Z:I:1 pbc="F F F"
C       0.26612226      -0.62344418      -0.05223782        6 
C      -0.97929431       0.04917173       0.13837181        6 
C       1.51986099       0.03667670       0.45719181        6 
C      -1.08880047       1.53385669      -0.09989016        6 
O       2.62143166      -0.31328410      -0.24254430        8 
O       1.55014371       0.82034384       1.37329884        8 
O       0.08472768       2.10753189      -0.42429648        8 
O      -2.13473155       2.13729823      -0.20421192        8 
C       0.03246954       3.49499256      -0.78610880        6 
C       3.85691977       0.26814885       0.20845109        6 
C       0.29539634      -2.01001845      -0.29782713        6 
C      -0.92422039      -2.69963906      -0.31229966        6 
C      -2.11726440      -2.06517304      -0.03145114        6 
C      -2.18404484      -0.68168089       0.17700564        6 
H      -0.58505265       3.63671504      -1.67494659        1 
H       3.81014368       1.35609448       0.14212156        1 
H      -3.03397352      -2.64407673       0.00254132        1 
H      -0.37543024       4.08925471       0.03266992        1 
H       1.06395362       3.77739930      -0.98563211        1 
H       4.62207487      -0.12501471      -0.45761592        1 
H       4.06134199      -0.01755398       1.24159815        1 
H      -0.92129180      -3.76788170      -0.50077681        1 
C      -3.55315655      -0.08606143       0.40991024        6 
C       1.55614788      -2.82586910      -0.49075009        6 
H       2.12877067      -2.48342398      -1.35285203        1 
H       1.29478642      -3.87499003      -0.63981876        1 
H       2.21892923      -2.76391622       0.37517006        1 
H      -3.91341176       0.44529412      -0.47368987        1 
H      -3.55661357       0.63679259       1.22488042        1 
H      -4.25807235      -0.88697904       0.64494403        1 
