30
Lattice="0.0 0.0 0.0 0.0 0.0 0.0 0.0 0.0 0.0" Properties=species:S:1:pos:R:3:Z:I:1 pbc="F F F"
C       0.71410431       0.28832992      -0.11738675        6 
C      -0.70241809       0.28453380       0.13364333        6 
C       1.46754056      -0.94093322       0.34175583        6 
C      -1.45496180      -0.94425190      -0.33157523        6 
O       2.79667386      -0.88234841       0.08643099        8 
O       0.97061709      -1.90397594       0.86854939        8 
O      -2.78300869      -0.88709576      -0.06793940        8 
O      -0.96233149      -1.90137834      -0.87241344        8 
C      -3.55011718      -2.02419733      -0.49777568        6 
C       3.55249868      -2.03430032       0.49765916        6 
C       1.39031537       1.50294829      -0.33058717        6 
C       0.65674052       2.69268429      -0.19607887        6 
C      -0.66206229       2.68943161       0.20302146        6 
C      -1.38873300       1.49578175       0.34015598        6 
H      -3.48172477      -2.14775881      -1.57984860        1 
H       3.48094282      -2.17570969       1.57728753        1 
H      -1.17223047       3.63294192       0.36399325        1 
H      -3.18957711      -2.93240533      -0.01274682        1 
H      -4.57457927      -1.80876713      -0.20012246        1 
H       4.57918322      -1.82454398       0.20428520        1 
H       3.18195178      -2.93009491      -0.00280808        1 
H       1.16043485       3.63872767      -0.36195175        1 
C      -2.85747053       1.63828918       0.68219151        6 
C       2.85428904       1.64724705      -0.68477162        6 
H       3.50104511       1.46694929       0.17641678        1 
H       3.03715874       2.66257582      -1.04282030        1 
H       3.15562331       0.94302948      -1.45863205        1 
H      -3.16817540       0.93403948       1.45204033        1 
H      -3.49653729       1.46020837      -0.18553205        1 
H      -3.04382888       2.65360611       1.03888761        1 
