30
Lattice="0.0 0.0 0.0 0.0 0.0 0.0 0.0 0.0 0.0" Properties=species:S:1:pos:R:3:Z:I:1 pbc="F F F"
C       0.72157713       0.30536119      -0.12460906        6 
C      -0.69510793       0.30115796       0.11170165        6 
C       1.45276416      -0.95826754       0.27438911        6 
C      -1.46028850      -0.90656412      -0.38196019        6 
O       2.79809884      -0.85704376       0.15599137        8 
O       0.93261972      -1.97451588       0.66177458        8 
O      -2.73103936      -0.95926723       0.08285457        8 
O      -1.00415444      -1.77138875      -1.08544933        8 
C      -3.50397885      -2.09216640      -0.34948740        6 
C       3.53893211      -2.03214100       0.52673955        6 
C       1.40861485       1.52110464      -0.29186780        6 
C       0.67954147       2.71023532      -0.13635007        6 
C      -0.64974432       2.70437271       0.22842949        6 
C      -1.38312535       1.51122259       0.32159082        6 
H      -3.59380880      -2.10475455      -1.43700624        1 
H       3.36688484      -2.27973285       1.57538075        1 
H      -1.16098819       3.64655792       0.39353568        1 
H      -3.03408470      -3.02003193      -0.02033566        1 
H      -4.48061889      -1.96910926       0.11448995        1 
H       4.58360050      -1.77860530       0.35789960        1 
H       3.24180679      -2.88041615      -0.09164649        1 
H       1.19112293       3.65747123      -0.26807622        1 
C      -2.86472110       1.64616368       0.60796638        6 
C       2.87682518       1.66655543      -0.62702427        6 
H       3.51085057       1.49117151       0.24452611        1 
H       3.06208268       2.68117424      -0.98624154        1 
H       3.19116460       0.96108226      -1.39449684        1 
H      -3.17913150       1.00394895       1.42969309        1 
H      -3.47478839       1.37298629      -0.25581926        1 
H      -3.08821936       2.68279162       0.86757691        1 
