30
Lattice="0.0 0.0 0.0 0.0 0.0 0.0 0.0 0.0 0.0" Properties=species:S:1:pos:R:3:Z:I:1 pbc="F F F"
C      -0.65708144      -0.65792787       0.03798050        6 
C      -0.46536692       0.73161865      -0.07369522        6 
C       0.51290783      -1.58992787       0.07480219        6 
C       0.91639960       1.31129426      -0.16666457        6 
O       1.47151276      -1.21853381      -0.79980035        8 
O       0.59726617      -2.57648757       0.76714493        8 
O       1.60797021       1.09289273       0.97158288        8 
O       1.35635484       1.90568224      -1.11823390        8 
C       2.98065263       1.52471128       0.96343992        6 
C       2.66943378      -2.01354712      -0.80534521        6 
C      -1.95699108      -1.19939443       0.11356082        6 
C      -3.03024440      -0.30861874       0.06808738        6 
C      -2.83663405       1.06276655      -0.04014415        6 
C      -1.55712669       1.61275780      -0.11924913        6 
H       3.52662310       1.02262192       0.16276214        1 
H       3.14078578      -1.99676624       0.17890171        1 
H      -3.69795379       1.72188486      -0.06670605        1 
H       3.04273157       2.60403015       0.81775453        1 
H       3.37815595       1.24465267       1.93632134        1 
H       3.31424772      -1.55541120      -1.55189040        1 
H       2.44131644      -3.04565981      -1.07524139        1 
H      -4.04042783      -0.70128142       0.11449596        1 
C      -1.37237992       3.10512277      -0.24702101        6 
C      -2.23403526      -2.68100589       0.21934014        6 
H      -1.69430908      -3.25318677      -0.53898697        1 
H      -3.30158034      -2.87081989       0.09285079        1 
H      -1.92124363      -3.07456740       1.18824895        1 
H      -0.91385878       3.36244172      -1.20427409        1 
H      -0.72056807       3.49834785       0.53857454        1 
H      -2.33277485       3.61805545      -0.17317676        1 
