30
Lattice="0.0 0.0 0.0 0.0 0.0 0.0 0.0 0.0 0.0" Properties=species:S:1:pos:R:3:Z:I:1 pbc="F F F"
C       0.58490276       0.38944463      -0.11170739        6 
C      -0.79549987       0.38752696       0.19845621        6 
C       1.37516103      -0.88537125       0.06680186        6 
C      -1.63091854      -0.86607860       0.19656283        6 
O       2.50103234      -0.63403288       0.77836710        8 
O       1.07834499      -2.00015409      -0.28325924        8 
O      -1.46994931      -1.54595115      -0.94736886        8 
O      -2.49594046      -1.12258713       1.00355086        8 
C      -2.22065232      -2.76475283      -1.07891742        6 
C       3.33586087      -1.77366778       1.05019409        6 
C       1.25402016       1.59198984      -0.39957218        6 
C       0.51771133       2.77658067      -0.33904898        6 
C      -0.81738467       2.78187007       0.03613781        6 
C      -1.50841730       1.59736240       0.30161421        6 
H      -1.92647298      -3.47207461      -0.30194200        1 
H       2.79344864      -2.51053379       1.64457396        1 
H      -1.35181013       3.72401074       0.09519895        1 
H      -3.29172006      -2.56898186      -1.00540948        1 
H      -1.96398363      -3.15385232      -2.06135061        1 
H       4.18449983      -1.38221171       1.60696424        1 
H       3.66573566      -2.23861508       0.11970305        1 
H       1.00656265       3.71381397      -0.58269367        1 
C      -2.98168850       1.66352077       0.63444135        6 
C       2.70923127       1.65836168      -0.80309787        6 
H       3.36032959       1.68276101       0.07346089        1 
H       2.88939955       2.56099263      -1.39074779        1 
H       3.00742456       0.79869344      -1.40523132        1 
H      -3.18395535       1.26530824       1.62955321        1 
H      -3.58188353       1.07427401      -0.06414195        1 
H      -3.32715911       2.69764263       0.59002456        1 
