30
Lattice="0.0 0.0 0.0 0.0 0.0 0.0 0.0 0.0 0.0" Properties=species:S:1:pos:R:3:Z:I:1 pbc="F F F"
C       0.60857061       0.50393292       0.01992632        6 
C      -0.79031556       0.39387801      -0.14314449        6 
C       1.38735301      -0.75846799      -0.19099418        6 
C      -1.48203793      -0.94417254      -0.21271395        6 
O       2.72369917      -0.60536644      -0.11042012        8 
O       0.88392603      -1.83692059      -0.41887358        8 
O      -1.46192695      -1.55236980       0.98923793        8 
O      -2.12308393      -1.33568736      -1.15668371        8 
C      -2.05190891      -2.86374085       1.03234220        6 
C       3.50199014      -1.79816989      -0.32166219        6 
C       1.19354262       1.77549753       0.22016572        6 
C       0.33770860       2.88095080       0.24367148        6 
C      -1.03194550       2.76129449       0.05770918        6 
C      -1.62946461       1.51488313      -0.13165552        6 
H      -3.10070363      -2.82588844       0.73340432        1 
H       3.25167478      -2.55327503       0.42472153        1 
H      -1.65391471       3.65011144       0.07519463        1 
H      -1.50656089      -3.53445426       0.36627333        1 
H      -1.95841151      -3.18983488       2.06597706        1 
H       4.53889706      -1.48519679      -0.22057356        1 
H       3.31558905      -2.20335754      -1.31707758        1 
H       0.76462732       3.86491380       0.40301491        1 
C      -3.12713998       1.39826761      -0.29614934        6 
C       2.66960508       2.03322436       0.41497586        6 
H       3.08198388       1.43349312       1.22713866        1 
H       2.82839530       3.08796102       0.64558420        1 
H       3.24308345       1.78445245      -0.48001019        1 
H      -3.56020040       0.71786303       0.44308320        1 
H      -3.38632776       1.00364174      -1.28066169        1 
H      -3.60184965       2.37305206      -0.17336714        1 
