30
Lattice="0.0 0.0 0.0 0.0 0.0 0.0 0.0 0.0 0.0" Properties=species:S:1:pos:R:3:Z:I:1 pbc="F F F"
C       0.83371041      -0.52171841       0.00904721        6 
C       0.23374149       0.74904782      -0.12883587        6 
C       0.01929028      -1.77502385      -0.07634019        6 
C      -1.25773051       0.94678656      -0.21178207        6 
O      -1.27349211      -1.53116049      -0.37809351        8 
O       0.44236185      -2.90211569       0.05055008        8 
O      -1.82544591       0.84053133       1.00721366        8 
O      -1.85466330       1.27799636      -1.20527052        8 
C      -3.25241750       1.01596793       1.04919963        6 
C      -2.13469692      -2.67260985      -0.51073814        6 
C       2.23890731      -0.62494140       0.14282629        6 
C       2.97989102       0.55886888       0.13160800        6 
C       2.37930403       1.80119720      -0.01632200        6 
C       0.99663279       1.92392636      -0.14888054        6 
H      -3.53117296       2.00085808       0.67160678        1 
H      -1.75393888      -3.35265353      -1.27373092        1 
H       2.99343361       2.69541857      -0.02267362        1 
H      -3.74488827       0.24984232       0.44735912        1 
H      -3.52715886       0.91362192       2.09677157        1 
H      -3.10090796      -2.26931165      -0.80630883        1 
H      -2.21205197      -3.20413791       0.43925919        1 
H       4.05748209       0.49834981       0.23650923        1 
C       0.35219176       3.28177239      -0.29917370        6 
C       2.98500029      -1.93020426       0.28658633        6 
H       2.63475376      -2.50454684       1.14495672        1 
H       4.05192756      -1.73039613       0.40442846        1 
H       2.84371723      -2.57287610      -0.58485938        1 
H      -0.41066806       3.44837203       0.46726878        1 
H      -0.13916125       3.37895450      -1.27001485        1 
H       1.09703165       4.07357805      -0.20741530        1 
