30
Lattice="0.0 0.0 0.0 0.0 0.0 0.0 0.0 0.0 0.0" Properties=species:S:1:pos:R:3:Z:I:1 pbc="F F F"
C       0.71924533       0.45509701       0.05963412        6 
C      -0.69182398       0.43859419       0.01812120        6 
C       1.46152281      -0.81931506       0.36707990        6 
C      -1.33601892      -0.90555263      -0.14394174        6 
O       2.32283731      -1.15275508      -0.60938419        8 
O       1.31134655      -1.45242727       1.38282500        8 
O      -2.62218395      -0.93957471       0.25671427        8 
O      -0.76237683      -1.88395543      -0.56569859        8 
C      -3.28822883      -2.20954765       0.13007200        6 
C       3.00736011      -2.40770774      -0.43161030        6 
C       1.43680129       1.65594386       0.04509947        6 
C       0.70708952       2.84411750      -0.03776504        6 
C      -0.67889030       2.83637222      -0.09023780        6 
C      -1.41446657       1.64662377      -0.07004803        6 
H      -3.29660950      -2.53525511      -0.91123748        1 
H       3.60024532      -2.39663649       0.48414547        1 
H      -1.21267237       3.77788450      -0.15995321        1 
H      -2.78652918      -2.96324937       0.73820386        1 
H      -4.30157286      -2.03888620       0.48720855        1 
H       3.64763130      -2.51405335      -1.30446997        1 
H       2.28112071      -3.22041021      -0.38419773        1 
H       1.23681735       3.79071980      -0.04991485        1 
C      -2.92085080       1.74176958      -0.16786650        6 
C       2.94361536       1.68812028       0.14074497        6 
H       3.30309432       1.10510309       0.99331919        1 
H       3.29797939       2.71291725       0.26161506        1 
H       3.40421538       1.26624797      -0.75545597        1 
H      -3.40465932       1.36817806       0.73597709        1 
H      -3.31582240       1.15503120      -0.99966200        1 
H      -3.21533721       2.78256493      -0.31379977        1 
