30
Lattice="0.0 0.0 0.0 0.0 0.0 0.0 0.0 0.0 0.0" Properties=species:S:1:pos:R:3:Z:I:1 pbc="F F F"
C       0.72502409       0.35981879      -0.12861091        6 
C      -0.68365037       0.37603010      -0.00324282        6 
C       1.44392614      -0.96621377      -0.11735962        6 
C      -1.53164934      -0.82036517      -0.35447943        6 
O       2.53006822      -0.90626342       0.69486813        8 
O       1.10997101      -1.98652630      -0.66201921        8 
O      -2.38333442      -1.13267273       0.65233320        8 
O      -1.45579564      -1.45107377      -1.37392629        8 
C      -3.26265967      -2.24530004       0.40337808        6 
C       3.27804172      -2.12787577       0.82340486        6 
C       1.45639033       1.56264456      -0.11123999        6 
C       0.75209067       2.75541874       0.06029623        6 
C      -0.62292145       2.76745318       0.23896432        6 
C      -1.37038032       1.59005134       0.19270132        6 
H      -3.92235114      -2.03028698      -0.43956402        1 
H       2.65230865      -2.91536840       1.24657792        1 
H      -1.13624677       3.71296170       0.37773323        1 
H      -2.68616758      -3.14506340       0.18482044        1 
H      -3.83969399      -2.36848680       1.31742491        1 
H       4.10275534      -1.89235443       1.49264958        1 
H       3.65094998      -2.45468512      -0.14882607        1 
H       1.29729376       3.69312427       0.05159431        1 
C      -2.87826235       1.66961387       0.29386682        6 
C       2.95351325       1.63532541      -0.31188239        6 
H       3.48886394       1.44154768       0.61993772        1 
H       3.22818780       2.63080888      -0.66664927        1 
H       3.30581749       0.90693731      -1.04387968        1 
H      -3.24167087       1.21136567       1.21557122        1 
H      -3.36716877       1.15195189      -0.53627645        1 
H      -3.20252393       2.71137012       0.27289077        1 
