30
Lattice="0.0 0.0 0.0 0.0 0.0 0.0 0.0 0.0 0.0" Properties=species:S:1:pos:R:3:Z:I:1 pbc="F F F"
C       0.57159316       0.55963591      -0.06225038        6 
C      -0.82413856       0.36728984      -0.07539278        6 
C       1.41308075      -0.66644012      -0.23135224        6 
C      -1.43518065      -0.99988046      -0.24572704        6 
O       2.65936456      -0.53911987       0.26557853        8 
O       1.01941030      -1.69695666      -0.73028941        8 
O      -1.33486405      -1.72375893       0.88572099        8 
O      -2.01805717      -1.36303155      -1.23549174        8 
C      -1.81138120      -3.08032408       0.80131132        6 
C       3.50036473      -1.70185092       0.14746967        6 
C       1.10286562       1.86307815       0.05201342        6 
C       0.19656176       2.91911520       0.17640088        6 
C      -1.17717196       2.71457285       0.19248267        6 
C      -1.71856591       1.43675559       0.05936716        6 
H      -2.86909805      -3.10143009       0.53394083        1 
H       3.07270851      -2.53740003       0.70372947        1 
H      -1.84273927       3.56432791       0.30214941        1 
H      -1.23508756      -3.62660801       0.05307791        1 
H      -1.65720372      -3.50368274       1.79143903        1 
H       4.45794929      -1.40826392       0.57178892        1 
H       3.61170230      -1.98891275      -0.89898419        1 
H       0.58133815       3.92961327       0.25889274        1 
C      -3.21433340       1.22391896       0.05960995        6 
C       2.57740439       2.19080324       0.02060262        6 
H       3.08334132       1.83780625       0.92107281        1 
H       2.71206690       3.27122152      -0.05259735        1 
H       3.08104677       1.72367774      -0.82756198        1 
H      -3.50969875       0.45730864       0.78177704        1 
H      -3.56555729       0.89306808      -0.92100760        1 
H      -3.73415270       2.14792874       0.31818605        1 
