30
Lattice="0.0 0.0 0.0 0.0 0.0 0.0 0.0 0.0 0.0" Properties=species:S:1:pos:R:3:Z:I:1 pbc="F F F"
C      -0.48730611      -0.69796949      -0.12394587        6 
C      -0.52439375       0.70057461       0.11630472        6 
C       0.78814484      -1.46403143       0.05800701        6 
C       0.70957263       1.52676485      -0.08074469        6 
O       1.56128924      -0.90670983       1.01991565        8 
O       1.04580136      -2.53469131      -0.44077466        8 
O       1.55864305       0.93862409      -0.95699983        8 
O       0.88583672       2.64858159       0.33486590        8 
C       2.77393490       1.65020634      -1.23358224        6 
C       2.80836084      -1.56870316       1.28069896        6 
C      -1.67463414      -1.43864545      -0.26754012        6 
C      -2.88442883      -0.74591620      -0.13999822        6 
C      -2.92193380       0.60726425       0.14524936        6 
C      -1.75368247       1.36955676       0.26581073        6 
H       2.55738235       2.63336342      -1.65390028        1 
H       2.64036176      -2.60357995       1.58228960        1 
H      -3.88142700       1.10074796       0.25745064        1 
H       3.36044345       1.77317049      -0.32079608        1 
H       3.31010781       1.03536054      -1.95338713        1 
H       3.27212485      -1.00424994       2.08676571        1 
H       3.43875987      -1.55409191       0.38929190        1 
H      -3.81452702      -1.29429765      -0.24594939        1 
C      -1.88966935       2.85188211       0.51759895        6 
C      -1.72443361      -2.92837553      -0.51707073        6 
H      -1.24679543      -3.19121352      -1.46177813        1 
H      -2.76338204      -3.26279543      -0.54209544        1 
H      -1.20046235      -3.49055746       0.25911283        1 
H      -1.42805033       3.44312181      -0.27625594        1 
H      -1.39736870       3.14654822       1.44496366        1 
H      -2.94643580       3.11938566       0.57771076        1 
