30
Lattice="0.0 0.0 0.0 0.0 0.0 0.0 0.0 0.0 0.0" Properties=species:S:1:pos:R:3:Z:I:1 pbc="F F F"
C       0.06849952      -0.73450635       0.09532443        6 
C      -0.98874524       0.18646890      -0.01850540        6 
C       1.48718619      -0.28551983       0.31922861        6 
C      -0.73148249       1.65227449       0.11457686        6 
O       2.20559875      -0.38125379      -0.81323517        8 
O       1.94994526       0.02249503       1.39024973        8 
O       0.46236947       2.00512807      -0.40834105        8 
O      -1.48432087       2.44593637       0.62823740        8 
C       0.86639084       3.36924308      -0.19737770        6 
C       3.59656569      -0.02800533      -0.70772019        6 
C      -0.16416967      -2.11776695       0.04704250        6 
C      -1.47753951      -2.54976545      -0.13338623        6 
C      -2.52377584      -1.64536498      -0.26345118        6 
C      -2.31390724      -0.26761396      -0.19794587        6 
H       0.12464141       4.05504720      -0.60805211        1 
H       3.70080673       1.00675283      -0.37751743        1 
H      -3.53215796      -2.01595554      -0.41282854        1 
H       0.98918099       3.56246668       0.86938816        1 
H       1.81583570       3.47340538      -0.71782418        1 
H       4.00369855      -0.15423072      -1.70828111        1 
H       4.10527732      -0.68325967       0.00136341        1 
H      -1.68300165      -3.61438862      -0.17572948        1 
C      -3.49964266       0.65747827      -0.33620867        6 
C       0.95837312      -3.11893094       0.18248630        6 
H       1.64093630      -3.06338468      -0.66995901        1 
H       0.56252512      -4.13457185       0.23340496        1 
H       1.54611575      -2.94167720       1.08758785        1 
H      -3.31389769       1.45696651      -1.05615185        1 
H      -3.73533220       1.14147038       0.61338272        1 
H      -4.37358384       0.09327113      -0.66777334        1 
