30
Lattice="0.0 0.0 0.0 0.0 0.0 0.0 0.0 0.0 0.0" Properties=species:S:1:pos:R:3:Z:I:1 pbc="F F F"
C       0.94756158      -0.29617784      -0.02407008        6 
C       0.08196725       0.80529487      -0.10408126        6 
C       0.38947291      -1.67577177       0.15864549        6 
C      -1.39899954       0.62778756      -0.31673260        6 
O      -0.60180224      -1.94389159      -0.71135526        8 
O       0.75177876      -2.45287401       1.01072348        8 
O      -2.05168659       0.52957651       0.86035327        8 
O      -1.93966757       0.56988710      -1.39069479        8 
C      -3.47881404       0.34273686       0.77620189        6 
C      -1.28877430      -3.19627028      -0.53720154        6 
C       2.34052261      -0.10768822       0.05361797        6 
C       2.81962783       1.20136542       0.02755547        6 
C       1.95641537       2.29159639      -0.03343745        6 
C       0.57532445       2.11754379      -0.10468722        6 
H      -3.94460543       1.18701264       0.26548466        1 
H      -0.60251503      -4.03177284      -0.68238201        1 
H       2.36366402       3.29705600      -0.03649515        1 
H      -3.71042410      -0.57573877       0.23453834        1 
H      -3.82325759       0.27914235       1.80587150        1 
H      -2.06753931      -3.20273146      -1.29652978        1 
H      -1.72069361      -3.25658429       0.46320082        1 
H       3.89031607       1.37013083       0.06508119        1 
C      -0.36304228       3.29683533      -0.19626068        6 
C       3.30260165      -1.26741440       0.15348345        6 
H       3.24743948      -1.73766311       1.13743945        1 
H       4.32553302      -0.92706285      -0.01585763        1 
H       3.07703505      -2.04485844      -0.58072477        1 
H      -1.06513704       3.31193727       0.64319341        1 
H      -0.95322520       3.25957283      -1.11626589        1 
H       0.19035434       4.23684837      -0.18691675        1 
