30
Lattice="0.0 0.0 0.0 0.0 0.0 0.0 0.0 0.0 0.0" Properties=species:S:1:pos:R:3:Z:I:1 pbc="F F F"
C      -0.43497326      -0.68201663      -0.09839250        6 
C      -0.61989871       0.70568049       0.00791529        6 
C       0.92254394      -1.31175824      -0.25346957        6 
C       0.49313954       1.65538363      -0.33353733        6 
O       1.61808478      -1.26856031       0.89480972        8 
O       1.29512059      -1.90230049      -1.23955509        8 
O       1.56676848       1.52305745       0.46342546        8 
O       0.43633157       2.44173430      -1.24917979        8 
C       2.70545118       2.33937884       0.12764677        6 
C       2.91274297      -1.89669748       0.87015581        6 
C      -1.52499792      -1.56628959       0.00450689        6 
C      -2.78530189      -1.02018673       0.24119992        6 
C      -2.96779664       0.35248855       0.36223745        6 
C      -1.90397517       1.24175813       0.22167144        6 
H       3.04819380       2.11262970      -0.88309856        1 
H       2.81834171      -2.95734892       0.63173070        1 
H      -3.96118058       0.74349449       0.55498971        1 
H       2.44966582       3.39793170       0.19061519        1 
H       3.46729092       2.08380377       0.86058631        1 
H       3.31772111      -1.76092067       1.87028847        1 
H       3.55290856      -1.41866854       0.12676234        1 
H      -3.63817411      -1.68338951       0.34023343        1 
C      -2.15156999       2.72914116       0.29858745        6 
C      -1.35572372      -3.06261236      -0.11905512        6 
H      -1.04467019      -3.34427743      -1.12784472        1 
H      -2.29400954      -3.57225590       0.10662136        1 
H      -0.59544052      -3.44152566       0.57041412        1 
H      -2.08000873       3.18838126      -0.69005106        1 
H      -1.42266260       3.23154770       0.93966864        1 
H      -3.14681842       2.92683260       0.70084757        1 
