30
Lattice="0.0 0.0 0.0 0.0 0.0 0.0 0.0 0.0 0.0" Properties=species:S:1:pos:R:3:Z:I:1 pbc="F F F"
C       0.68119741       0.36360750       0.08230551        6 
C      -0.72888610       0.32391520      -0.13361442        6 
C       1.52125885      -0.80299245      -0.37681421        6 
C      -1.40390023      -1.00604731       0.11627303        6 
O       2.57511019      -1.03903683       0.43655183        8 
O       1.26324783      -1.48860455      -1.33145458        8 
O      -2.73039032      -0.86913980       0.35687846        8 
O      -0.86807033      -2.08563680       0.15796235        8 
C      -3.44155778      -2.08574902       0.64104913        6 
C       3.39289576      -2.16782853       0.07752778        6 
C       1.33346701       1.59009318       0.29695901        6 
C       0.56314188       2.75888058       0.25849473        6 
C      -0.78221802       2.72557520      -0.05484040        6 
C      -1.46800435       1.51809722      -0.23787869        6 
H      -3.35876530      -2.78213485      -0.19462554        1 
H       2.79234087      -3.07832750       0.06397626        1 
H      -1.33172297       3.65662176      -0.14262242        1 
H      -3.04556696      -2.55980055       1.54043226        1 
H      -4.47656373      -1.78447872       0.79061527        1 
H       4.16202087      -2.22355743       0.84496868        1 
H       3.84127717      -2.02049609      -0.90647387        1 
H       1.04909789       3.71426903       0.42459349        1 
C      -2.94515213       1.61263734      -0.55761392        6 
C       2.82521110       1.72644546       0.50776244        6 
H       3.15176144       1.20019868       1.40521171        1 
H       3.09094876       2.78056262       0.60312117        1 
H       3.39363651       1.31071829      -0.32773410        1 
H      -3.55990100       1.46546850       0.33298870        1 
H      -3.25831661       0.86736969      -1.28735626        1 
H      -3.16051364       2.60479363      -0.96091686        1 
