30
Lattice="0.0 0.0 0.0 0.0 0.0 0.0 0.0 0.0 0.0" Properties=species:S:1:pos:R:3:Z:I:1 pbc="F F F"
C       0.69550041       0.37707615      -0.02169043        6 
C      -0.71344180       0.33989723       0.13653967        6 
C       1.55177070      -0.79952185       0.37217910        6 
C      -1.41029097      -0.99645938       0.03111471        6 
O       2.46150709      -1.10354897      -0.58329545        8 
O       1.42159320      -1.43300446       1.38496629        8 
O      -2.57845145      -0.86688261      -0.64920207        8 
O      -1.00814268      -2.07009200       0.39934873        8 
C      -3.32284530      -2.07982046      -0.85140868        6 
C       3.30947939      -2.23121459      -0.29719155        6 
C       1.35448923       1.60242097      -0.23360303        6 
C       0.58620729       2.76899765      -0.24868885        6 
C      -0.77814538       2.73707696      -0.01096172        6 
C      -1.46192779       1.53239015       0.16840402        6 
H      -2.73730932      -2.79678114      -1.42905370        1 
H       3.90557483      -2.04615876       0.59825198        1 
H      -1.33458769       3.66732208       0.03152990        1 
H      -3.59255492      -2.52973084       0.10565201        1 
H      -4.21400097      -1.78248364      -1.40046019        1 
H       3.95155803      -2.33902748      -1.16878542        1 
H       2.70759946      -3.12852818      -0.14659344        1 
H       1.07927893       3.72263074      -0.40343600        1 
C      -2.95230645       1.59961252       0.42691731        6 
C       2.85478830       1.71211060      -0.38687533        6 
H       3.38282545       1.23402678       0.44256825        1 
H       3.15407555       2.76121084      -0.41186788        1 
H       3.19707290       1.22941892      -1.30372140        1 
H      -3.28877427       0.82610143       1.11731210        1 
H      -3.52393824       1.47928074      -0.49592854        1 
H      -3.20130913       2.57172729       0.85857698        1 
