30
Lattice="0.0 0.0 0.0 0.0 0.0 0.0 0.0 0.0 0.0" Properties=species:S:1:pos:R:3:Z:I:1 pbc="F F F"
C      -0.18912021      -0.74582844      -0.12914990        6 
C      -0.83028566       0.50319937       0.03780028        6 
C       1.30741299      -0.90759084      -0.17695462        6 
C      -0.06640943       1.78344129      -0.08071509        6 
O       1.83957310      -0.76599947       1.05359806        8 
O       1.93370932      -1.26297823      -1.14418653        8 
O       1.24194196       1.58005076      -0.34033981        8 
O      -0.54187950       2.89544623      -0.02631856        8 
C       2.04674855       2.75041892      -0.55054682        6 
C       3.26436189      -0.93762515       1.14001106        6 
C      -0.91960239      -1.94350504      -0.17439221        6 
C      -2.30443068      -1.86719000      -0.02696872        6 
C      -2.94151861      -0.65058234       0.16193206        6 
C      -2.23825722       0.55571958       0.18902090        6 
H       1.63927272       3.35126797      -1.36441923        1 
H       3.55292248      -1.93367826       0.80071890        1 
H      -4.01896838      -0.62900275       0.28358488        1 
H       2.08644013       3.35362713       0.35786313        1 
H       3.03479428       2.37566421      -0.80861606        1 
H       3.50977609      -0.80318437       2.19117798        1 
H       3.77263756      -0.19001164       0.52839019        1 
H      -2.89055747      -2.78008185      -0.05068093        1 
C      -3.03305484       1.82706100       0.37040837        6 
C      -0.25423051      -3.28755796      -0.36094388        6 
H       0.23245375      -3.35560915      -1.33623109        1 
H      -0.98970474      -4.09010577      -0.28470354        1 
H       0.51434095      -3.46601095       0.39678774        1 
H      -2.96524381       2.47112476      -0.50842930        1 
H      -2.66715774       2.41960571       1.20953837        1 
H      -4.08258385       1.57970725       0.54282227        1 
