30
Lattice="0.0 0.0 0.0 0.0 0.0 0.0 0.0 0.0 0.0" Properties=species:S:1:pos:R:3:Z:I:1 pbc="F F F"
C      -0.45142926      -0.69898872       0.12424175        6 
C      -0.63356312       0.69146311      -0.04358608        6 
C       0.91731901      -1.31419199       0.11530081        6 
C       0.53431533       1.62021898       0.03539773        6 
O       1.58895364      -0.97868321      -1.00857009        8 
O       1.33880915      -2.09170488       0.93574339        8 
O       1.50225614       1.12721170       0.84021153        8 
O       0.60316801       2.71419172      -0.47484251        8 
C       2.70557564       1.90443613       0.94119430        6 
C       2.92162858      -1.50677844      -1.12011012        6 
C      -1.54653073      -1.57638232       0.18016817        6 
C      -2.82287788      -1.02177855       0.06100783        6 
C      -3.00716638       0.34127700      -0.11399015        6 
C      -1.93045868       1.23078859      -0.16761113        6 
H       3.16088120       2.02732500      -0.04309056        1 
H       3.53550855      -1.16552177      -0.28464904        1 
H      -4.01455040       0.73344957      -0.20159980        1 
H       2.49195554       2.88722995       1.36349508        1 
H       3.35850799       1.33719633       1.60097331        1 
H       3.30676927      -1.12400216      -2.06270117        1 
H       2.90227121      -2.59755352      -1.12754169        1 
H      -3.68744183      -1.67630664       0.09612778        1 
C      -2.21852058       2.70362732      -0.33178688        6 
C      -1.39413110      -3.07140975       0.33889844        6 
H      -0.70836398      -3.49260750      -0.40084090        1 
H      -2.36083906      -3.56399067       0.21959420        1 
H      -0.99184019      -3.32490698       1.32156160        1 
H      -1.84595259       3.07757114      -1.28705989        1 
H      -1.73646797       3.30410715       0.44249411        1 
H      -3.29522063       2.87699385      -0.28345858        1 
