30
Lattice="0.0 0.0 0.0 0.0 0.0 0.0 0.0 0.0 0.0" Properties=species:S:1:pos:R:3:Z:I:1 pbc="F F F"
C       0.66887433       0.47000728      -0.13468788        6 
C      -0.70147072       0.46902415       0.14223795        6 
C       1.37410863      -0.85433964      -0.19642653        6 
C      -1.43204145      -0.83840937       0.29053102        6 
O       2.26106978      -0.98454133       0.80716009        8 
O       1.17762746      -1.70569549      -1.03037161        8 
O      -1.95720319      -1.23474928      -0.87851379        8 
O      -1.57912721      -1.42788409       1.33464394        8 
C      -2.66351735      -2.49130906      -0.86619818        6 
C       2.97388258      -2.23693601       0.86008289        6 
C       1.36939465       1.67294758      -0.30473585        6 
C       0.64279253       2.85973094      -0.20342499        6 
C      -0.72080501       2.85653449       0.08121335        6 
C      -1.42347364       1.66439908       0.25442329        6 
H      -1.98132051      -3.30077175      -0.60330859        1 
H       2.27265007      -3.06420213       0.97680724        1 
H      -1.25266212       3.79884022       0.16079926        1 
H      -3.48665423      -2.46095734      -0.15063756        1 
H      -3.03600018      -2.62073621      -1.87957525        1 
H       3.62518059      -2.16061702       1.72745035        1 
H       3.55688639      -2.38330776      -0.05061719        1 
H       1.15484056       3.80526353      -0.34698808        1 
C      -2.90539926       1.65291796       0.54219640        6 
C       2.84876544       1.68495095      -0.60131526        6 
H       3.42593950       1.39529451       0.28067610        1 
H       3.17348555       2.67868761      -0.91379218        1 
H       3.10080352       0.98184464      -1.40048043        1 
H      -3.12375284       1.12938112       1.47739800        1 
H      -3.45649131       1.14282905      -0.25397008        1 
H      -3.29507372       2.66872660       0.62375291        1 
