30
Lattice="0.0 0.0 0.0 0.0 0.0 0.0 0.0 0.0 0.0" Properties=species:S:1:pos:R:3:Z:I:1 pbc="F F F"
C       0.72127120       0.41170037       0.11450452        6 
C      -0.68601352       0.42112823      -0.00165750        6 
C       1.38019381      -0.93540994       0.04086957        6 
C      -1.51656091      -0.78859253       0.35441709        6 
O       2.65659684      -0.87465095      -0.39786135        8 
O       0.84328372      -1.98769660       0.29707738        8 
O      -2.15818913      -1.28921771      -0.72034985        8 
O      -1.61364502      -1.23265193       1.46810278        8 
C      -2.97234683      -2.45292960      -0.47454763        6 
C       3.33177200      -2.13921692      -0.52441205        6 
C       1.43783443       1.62760509       0.10112910        6 
C       0.70805766       2.80914757      -0.05464543        6 
C      -0.66910005       2.80540777      -0.22598125        6 
C      -1.39700372       1.61616179      -0.18313828        6 
H      -2.35432480      -3.26910871      -0.09825361        1 
H       3.35464020      -2.65816793       0.43468540        1 
H      -1.19500071       3.74468238      -0.36186969        1 
H      -3.75341551      -2.22605085       0.25291383        1 
H      -3.40753184      -2.71043042      -1.43769675        1 
H       4.33879972      -1.89516336      -0.85591427        1 
H       2.82652918      -2.76837794      -1.25884733        1 
H       1.23926484       3.75470652      -0.04887197        1 
C      -2.90521889       1.63591580      -0.28808976        6 
C       2.93521124       1.74064544       0.27398894        6 
H       3.30705671       1.08556576       1.06253425        1 
H       3.19614883       2.76953472       0.52901137        1 
H       3.46342619       1.46680459      -0.64149185        1 
H      -3.37021422       1.14678703       0.57339012        1 
H      -3.24760602       1.11025889      -1.18250333        1 
H      -3.27375869       2.66195724      -0.32806489        1 
