30
Lattice="0.0 0.0 0.0 0.0 0.0 0.0 0.0 0.0 0.0" Properties=species:S:1:pos:R:3:Z:I:1 pbc="F F F"
C       0.70644626       0.45631741       0.07134119        6 
C      -0.69074572       0.45462069      -0.07610882        6 
C       1.37555149      -0.87597945       0.23011919        6 
C      -1.39512572      -0.85675843      -0.28877374        6 
O       2.48268399      -0.99751398      -0.52371372        8 
O       0.95757725      -1.75732852       0.94452520        8 
O      -2.32470899      -1.08961065       0.65295168        8 
O      -1.17231944      -1.59988796      -1.21422805        8 
C      -3.04199857      -2.33358337       0.53262393        6 
C       3.14932162      -2.27320064      -0.45452935        6 
C       1.41525670       1.66373856       0.17511841        6 
C       0.67876591       2.84949722       0.11000798        6 
C      -0.70063674       2.84418862      -0.05973847        6 
C      -1.41773773       1.64979423      -0.15477697        6 
H      -3.56148274      -2.38470125      -0.42559382        1 
H       3.44821560      -2.49406339       0.57111066        1 
H      -1.23511288       3.78638683      -0.12091976        1 
H      -2.35041679      -3.17293432       0.61509597        1 
H      -3.75180100      -2.33811114       1.35673531        1 
H       4.02016638      -2.17826651      -1.09914260        1 
H       2.48717282      -3.06170527      -0.81492208        1 
H       1.20047987       3.79654966       0.19682575        1 
C      -2.91614575       1.66661446      -0.34910038        6 
C       2.91084445       1.71778250       0.37531611        6 
H       3.23488686       1.06269014       1.18810270        1 
H       3.22420897       2.73480029       0.61674209        1 
H       3.43883801       1.39539784      -0.52443352        1 
H      -3.43162661       1.30793438       0.54503999        1 
H      -3.22321864       1.02294707      -1.17843457        1 
H      -3.26380104       2.67821574      -0.56509429        1 
