30
Lattice="0.0 0.0 0.0 0.0 0.0 0.0 0.0 0.0 0.0" Properties=species:S:1:pos:R:3:Z:I:1 pbc="F F F"
C       0.71390197       0.44396762      -0.03388187        6 
C      -0.69473577       0.43767694       0.03008651        6 
C       1.40148006      -0.86883349      -0.27865200        6 
C      -1.37852799      -0.87878220       0.26817708        6 
O       2.49466331      -1.03641698       0.48755973        8 
O       1.00808179      -1.69578605      -1.06631147        8 
O      -2.48291275      -1.03237513      -0.48609628        8 
O      -0.98227276      -1.71499908       1.04435801        8 
C      -3.18764079      -2.27753467      -0.32397389        6 
C       3.17309030      -2.29821578       0.33839318        6 
C       1.42678378       1.65099666      -0.08676159        6 
C       0.68937982       2.83822250      -0.04163963        6 
C      -0.69523671       2.83172007       0.04374537        6 
C      -1.42149475       1.63765789       0.08538497        6 
H      -2.54611887      -3.11283771      -0.60768504        1 
H       2.50702094      -3.11616505       0.61653065        1 
H      -1.23125407       3.77385705       0.08689608        1 
H      -3.50863611      -2.40468916       0.71111798        1 
H      -4.04694489      -2.21054198      -0.98766633        1 
H       4.02478724      -2.24922268       1.01311285        1 
H       3.50323077      -2.43707417      -0.69217336        1 
H       1.21592418       3.78562711      -0.08336384        1 
C      -2.92716801       1.69231456       0.21551883        6 
C       2.93011891       1.71291844      -0.22051888        6 
H       3.42219608       1.34935625       0.68348187        1 
H       3.25043662       2.74034128      -0.40111784        1 
H       3.28902210       1.09716486      -1.04912013        1 
H      -3.28911064       1.06902073       1.03704191        1 
H      -3.41659072       1.33662718      -0.69308936        1 
H      -3.25051980       2.71751010       0.40417860        1 
