30
Lattice="0.0 0.0 0.0 0.0 0.0 0.0 0.0 0.0 0.0" Properties=species:S:1:pos:R:3:Z:I:1 pbc="F F F"
C       1.00990123      -0.12520119       0.00796798        6 
C      -0.09093190       0.74142099      -0.09102108        6 
C       0.80732156      -1.60236441      -0.11415443        6 
C      -1.47292324       0.19627758      -0.33126132        6 
O      -0.32909442      -2.00357563       0.49735353        8 
O       1.55300675      -2.36364174      -0.68275629        8 
O      -2.24796079       0.33095055       0.76001416        8 
O      -1.86602909      -0.23550489      -1.38771030        8 
C      -3.60805694      -0.12094958       0.62614975        6 
C      -0.71041789      -3.37621957       0.29599024        6 
C       2.31055327       0.38596165       0.18035724        6 
C       2.45149437       1.77255008       0.25479690        6 
C       1.35914312       2.62606952       0.14198926        6 
C       0.06617703       2.13209368      -0.03202451        6 
H      -4.11753730       0.42693076      -0.16823131        1 
H      -0.91914221      -3.55434713      -0.76017931        1 
H       1.51241495       3.69896845       0.19069618        1 
H      -3.63257999      -1.18777579       0.39798943        1 
H      -4.07436466       0.07500450       1.58906872        1 
H      -1.60922983      -3.51669033       0.89270626        1 
H       0.08136441      -4.04759372       0.62979208        1 
H       3.44127124       2.19164409       0.39912525        1 
C      -1.11529687       3.06556260      -0.15022916        6 
C       3.52631391      -0.50044717       0.30192930        6 
H       3.37262647      -1.30268933       1.02736415        1 
H       4.39026634       0.08703320       0.61754308        1 
H       3.75766296      -0.98319601      -0.64949741        1 
H      -1.75780799       2.99661551       0.73169448        1 
H      -1.73118058       2.82538681      -1.02194243        1 
H      -0.78247541       4.09967079      -0.25055333        1 
