30
Lattice="0.0 0.0 0.0 0.0 0.0 0.0 0.0 0.0 0.0" Properties=species:S:1:pos:R:3:Z:I:1 pbc="F F F"
C       0.73338765       0.36589066      -0.12269506        6 
C      -0.67345538       0.39475507       0.02503176        6 
C       1.40322207      -0.98017100      -0.04053204        6 
C      -1.53264283      -0.78690349      -0.35332786        6 
O       2.62318294      -0.89830323       0.54160986        8 
O       0.92961886      -2.03684613      -0.37882393        8 
O      -2.32239474      -1.18033838       0.67024690        8 
O      -1.51919765      -1.32033677      -1.43029577        8 
C      -3.19593909      -2.29170584       0.39242422        6 
C       3.32186180      -2.14611778       0.69642112        6 
C       1.46947122       1.56756473      -0.13715735        6 
C       0.76776632       2.76393583       0.03164732        6 
C      -0.60237527       2.78385081       0.24349687        6 
C      -1.35439928       1.60824305       0.22183574        6 
H      -3.90291357      -2.03355951      -0.39830354        1 
H       2.75593443      -2.82293297       1.33847246        1 
H      -1.10849498       3.73261755       0.38716605        1 
H      -2.61483369      -3.16163792       0.08439024        1 
H      -3.72088673      -2.48737958       1.32497494        1 
H       4.27378887      -1.88810268       1.15574737        1 
H       3.47654892      -2.62132285      -0.27337968        1 
H       1.31497398       3.69990250       0.00110053        1 
C      -2.86025213       1.67996038       0.34908135        6 
C       2.96245366       1.64924504      -0.36331501        6 
H       3.51616871       1.44581483       0.55554608        1 
H       3.22385952       2.65175455      -0.70836033        1 
H       3.30516998       0.93122163      -1.10898495        1 
H      -3.20867683       1.17830237       1.25386644        1 
H      -3.35818908       1.19881639      -0.49821579        1 
H      -3.18927597       2.71990178       0.37945603        1 
