30
Lattice="0.0 0.0 0.0 0.0 0.0 0.0 0.0 0.0 0.0" Properties=species:S:1:pos:R:3:Z:I:1 pbc="F F F"
C       0.17270053      -0.71798136      -0.07000103        6 
C      -1.00453281       0.05014301      -0.00487215        6 
C       1.49244817      -0.05246946      -0.33857719        6 
C      -0.93743579       1.54029790      -0.10211554        6 
O       2.35342912      -0.23248430       0.67916429        8 
O       1.76916019       0.52856825      -1.35989167        8 
O       0.11085079       2.03565445       0.59004579        8 
O      -1.72542809       2.23451678      -0.69838794        8 
C       0.35525217       3.44546772       0.44190418        6 
C       3.66345100       0.33590468       0.49885074        6 
C       0.12801814      -2.11934223      -0.00107999        6 
C      -1.12160274      -2.72013850       0.15677320        6 
C      -2.28378793      -1.96465660       0.23907054        6 
C      -2.25986779      -0.57192502       0.14910423        6 
H       0.60219665       3.67313077      -0.59629273        1 
H       4.15038176      -0.09656411      -0.37674182        1 
H      -3.23631383      -2.46699225       0.37029384        1 
H      -0.52159285       4.02003325       0.74240719        1 
H       1.19894003       3.66225457       1.09343312        1 
H       4.21258343       0.09157670       1.40532532        1 
H       3.59126864       1.41705348       0.37198966        1 
H      -1.18502553      -3.80203676       0.21033936        1 
C      -3.55888252       0.19367293       0.23067671        6 
C       1.36879163      -2.97395025      -0.11029320        6 
H       1.98115127      -2.68888313      -0.97044663        1 
H       1.09899010      -4.02482927      -0.22828417        1 
H       1.99340181      -2.87809242       0.78105885        1 
H      -3.82415481       0.62117440      -0.73845911        1 
H      -3.50044688       1.02812373       0.93281449        1 
H      -4.36450772      -0.46934741       0.55192227        1 
