30
Lattice="0.0 0.0 0.0 0.0 0.0 0.0 0.0 0.0 0.0" Properties=species:S:1:pos:R:3:Z:I:1 pbc="F F F"
C       0.71558320       0.44006095       0.02497742        6 
C      -0.69475659       0.43601660      -0.02250605        6 
C       1.39114596      -0.87972276       0.25922408        6 
C      -1.39380604      -0.86788872      -0.29281426        6 
O       2.55344488      -1.00398458      -0.40859101        8 
O       0.92935977      -1.75766639       0.94942516        8 
O      -2.45177756      -1.06235229       0.51600284        8 
O      -1.04987749      -1.65377662      -1.14228000        8 
C      -3.16942677      -2.29611046       0.32458344        6 
C       3.22422298      -2.27024754      -0.26428708        6 
C       1.42674704       1.65016988       0.07860585        6 
C       0.68544039       2.83620180       0.05070554        6 
C      -0.69964524       2.82936005      -0.01751404        6 
C      -1.42338710       1.63399001      -0.06209397        6 
H      -3.56681172      -2.35459773      -0.69009990        1 
H       3.47561542      -2.45406625       0.78142639        1 
H      -1.23732084       3.77111658      -0.04739274        1 
H      -2.50975303      -3.14618525       0.50298591        1 
H      -3.97703623      -2.27610145       1.05305756        1 
H       4.12491543      -2.18936903      -0.86873216        1 
H       2.58652682      -3.07703426      -0.62803817        1 
H       1.21110270       3.78394445       0.09369254        1 
C      -2.93022795       1.68107489      -0.18152197        6 
C       2.93095613       1.72831791       0.19561526        6 
H       3.30687626       1.12270655       1.02359899        1 
H       3.23978251       2.76129439       0.36433787        1 
H       3.41789161       1.36367735      -0.71047388        1 
H      -3.41177914       1.31390046       0.72685909        1 
H      -3.29282607       1.06311460      -1.00704944        1 
H      -3.26204838       2.70548513      -0.35910344        1 
