30
Lattice="0.0 0.0 0.0 0.0 0.0 0.0 0.0 0.0 0.0" Properties=species:S:1:pos:R:3:Z:I:1 pbc="F F F"
C       0.97936773      -0.23543457       0.04519628        6 
C      -0.01278856       0.75160903      -0.08965433        6 
C       0.62854350      -1.68179764      -0.10776360        6 
C      -1.46436740       0.39789532      -0.27954164        6 
O      -0.62272014      -1.95474267       0.32091867        8 
O       1.35438262      -2.52690763      -0.57708163        8 
O      -2.12902074       0.43928887       0.88901646        8 
O      -1.99322054       0.22032428      -1.34982571        8 
C      -3.53654428       0.14699125       0.82204901        6 
C      -1.11398141      -3.28000966       0.05318415        6 
C       2.32948713       0.13253423       0.22414354        6 
C       2.62683221       1.49504414       0.26404084        6 
C       1.64221216       2.46456774       0.10823382        6 
C       0.30396477       2.11623363      -0.06863708        6 
H      -4.05582957       0.89500827       0.22040907        1 
H      -1.09537297      -3.48064890      -1.01878340        1 
H       1.91781532       3.51365101       0.12947528        1 
H      -3.69877887      -0.83955187       0.38499829        1 
H      -3.88684097       0.17238520       1.85153052        1 
H      -2.13601133      -3.28906487       0.42611504        1 
H      -0.50953592      -4.02396975       0.57355499        1 
H       3.65595641       1.80203660       0.41413770        1 
C      -0.76559859       3.17025020      -0.22841105        6 
C       3.44426681      -0.87263333       0.38668086        6 
H       3.19157396      -1.64735760       1.11339677        1 
H       4.35347760      -0.36941835       0.72125356        1 
H       3.65217527      -1.38612013      -0.55386336        1 
H      -1.47225127       3.14484918       0.60664840        1 
H      -1.33912588       3.01754273      -1.14679237        1 
H      -0.32458739       4.16746757      -0.26649089        1 
