30
Lattice="0.0 0.0 0.0 0.0 0.0 0.0 0.0 0.0 0.0" Properties=species:S:1:pos:R:3:Z:I:1 pbc="F F F"
C       1.00462857      -0.00031871      -0.11056067        6 
C      -0.24355226       0.66416812       0.01953304        6 
C       1.07901655      -1.49260618       0.04690015        6 
C      -1.48021464      -0.06194511      -0.43647781        6 
O      -0.04932840      -2.00059429       0.59053639        8 
O       2.07155361      -2.16833949      -0.10540234        8 
O      -2.55853972       0.20482302       0.32902154        8 
O      -1.51086706      -0.81970209      -1.37563479        8 
C      -3.77837575      -0.45469605      -0.05450453        6 
C      -0.08117840      -3.42267733       0.78105214        6 
C       2.20841609       0.72881794      -0.08296732        6 
C       2.12026250       2.11455241       0.10010468        6 
C       0.90484724       2.75259513       0.27362955        6 
C      -0.30629301       2.05280808       0.21494811        6 
H      -4.07772102      -0.15561564      -1.06050794        1 
H      -0.00028501      -3.93637175      -0.17855947        1 
H       0.88352188       3.82660664       0.42449403        1 
H      -3.64795798      -1.53741878      -0.02810242        1 
H      -4.52033658      -0.13904978       0.67592937        1 
H      -1.04490302      -3.62958235       1.24193869        1 
H       0.73307434      -3.74282478       1.43268016        1 
H       3.03474396       2.69691180       0.12297146        1 
C      -1.59929600       2.83250808       0.31170314        6 
C       3.57896643       0.11054427      -0.21740851        6 
H       3.80297461      -0.55871746       0.61642865        1 
H       4.33555942       0.89706133      -0.24735926        1 
H       3.65950094      -0.49525278      -1.12022116        1 
H      -2.18180730       2.53584217       1.18504416        1 
H      -2.23658137       2.67430377      -0.56217143        1 
H      -1.38537761       3.90033590       0.38175052        1 
