30
Lattice="0.0 0.0 0.0 0.0 0.0 0.0 0.0 0.0 0.0" Properties=species:S:1:pos:R:3:Z:I:1 pbc="F F F"
C       0.90673471       0.23095240       0.19388620        6 
C      -0.46722206       0.48861454      -0.08664653        6 
C       1.46961270      -1.15026664      -0.01431826        6 
C      -1.42716572      -0.59413081       0.34186022        6 
O       0.82217794      -1.77741321      -1.02115686        8 
O       2.51368188      -1.56387540       0.43529117        8 
O      -2.72339535      -0.21915740       0.25974360        8 
O      -1.11392139      -1.69126403       0.74154420        8 
C      -3.68828240      -1.19544644       0.68848604        6 
C       1.24290157      -3.11960761      -1.30238193        6 
C       1.83329112       1.27966909       0.29828163        6 
C       1.36696061       2.57780168       0.04889889        6 
C       0.06268813       2.81610856      -0.34090957        6 
C      -0.89592877       1.79413668      -0.39374467        6 
H      -3.61669676      -2.09752843       0.07902812        1 
H       2.29682049      -3.14722485      -1.58389807        1 
H      -0.24271413       3.82854666      -0.58214391        1 
H      -3.52910969      -1.45848177       1.73520508        1 
H      -4.65699342      -0.71789248       0.55558802        1 
H       0.61658755      -3.45092834      -2.12812684        1 
H       1.08353613      -3.75301851      -0.42750130        1 
H       2.06150189       3.40750462       0.12226161        1 
C      -2.30403765       2.19297613      -0.77870899        6 
C       3.29534277       1.08316651       0.61830514        6 
H       3.43061627       0.55520238       1.56256219        1 
H       3.79406507       2.05241298       0.67917319        1 
H       3.79806526       0.48068588      -0.14198180        1 
H      -2.96320073       2.23294960       0.09123189        1 
H      -2.75095114       1.49028236      -1.48074142        1 
H      -2.28452678       3.18259259      -1.23972311        1 
