30
Lattice="0.0 0.0 0.0 0.0 0.0 0.0 0.0 0.0 0.0" Properties=species:S:1:pos:R:3:Z:I:1 pbc="F F F"
C       0.72976124       0.48616158       0.13559873        6 
C      -0.66788439       0.49844956       0.15425266        6 
C       1.46805687      -0.79932147       0.38901857        6 
C      -1.43102467      -0.77817816       0.37738905        6 
O       1.88157871      -1.35375694      -0.77139659        8 
O       1.65726430      -1.29198486       1.47102050        8 
O      -1.96808716      -1.22152579      -0.78086444        8 
O      -1.56600091      -1.34062511       1.43373674        8 
C      -2.75718756      -2.42426609      -0.69195317        6 
C       2.58225691      -2.60849692      -0.65499592        6 
C       1.45829098       1.66381487      -0.08289645        6 
C       0.74064768       2.84561257      -0.26428485        6 
C      -0.65163419       2.85801477      -0.24325253        6 
C      -1.38409892       1.68822511      -0.04613883        6 
H      -2.15564153      -3.24826883      -0.30581725        1 
H       3.49384607      -2.48427580      -0.06832456        1 
H      -1.18007417       3.79485315      -0.38428360        1 
H      -3.61588359      -2.26981030      -0.03629880        1 
H      -3.08347838      -2.63051733      -1.70887639        1 
H       2.81841520      -2.90278767      -1.67506670        1 
H       1.94626658      -3.35400885      -0.17532959        1 
H       1.28058424       3.77307910      -0.42236306        1 
C      -2.89479109       1.70130225      -0.04394281        6 
C       2.96687926       1.64458985      -0.11517349        6 
H       3.37574338       1.17045168       0.78184111        1 
H       3.36813411       2.65717466      -0.17458260        1 
H       3.33290954       1.08186583      -0.97903329        1 
H      -3.29680019       1.19336906       0.83754167        1 
H      -3.29298359       1.19022082      -0.92525757        1 
H      -3.27350433       2.72446323      -0.04396464        1 
