30
Lattice="0.0 0.0 0.0 0.0 0.0 0.0 0.0 0.0 0.0" Properties=species:S:1:pos:R:3:Z:I:1 pbc="F F F"
C       0.58119282       0.39672836       0.10810632        6 
C      -0.79676887       0.39524498      -0.22731995        6 
C       1.34055897      -0.87014666      -0.19394078        6 
C      -1.62114066      -0.86441173      -0.17055827        6 
O       2.62942083      -0.61972831      -0.51600065        8 
O       0.88762492      -1.99016736      -0.22084540        8 
O      -1.43192763      -1.49381925       1.00404207        8 
O      -2.51392425      -1.14977240      -0.93477571        8 
C      -2.14677147      -2.72731552       1.18022436        6 
C       3.41596949      -1.76800561      -0.88056314        6 
C       1.23109252       1.60021673       0.44071157        6 
C       0.48049531       2.77865372       0.37594213        6 
C      -0.83938775       2.78257542      -0.04550696        6 
C      -1.51820104       1.59520283      -0.33738102        6 
H      -3.22089538      -2.57468408       1.06424458        1 
H       3.45706547      -2.48313795      -0.05745063        1 
H      -1.37493768       3.72347070      -0.11501333        1 
H      -1.80086742      -3.46193740       0.45074428        1 
H      -1.91040587      -3.05597048       2.18987385        1 
H       4.40728786      -1.37815569      -1.10148845        1 
H       2.99009408      -2.25793895      -1.75739514        1 
H       0.95412340       3.71638984       0.64597136        1 
C      -2.98284106       1.65292619      -0.70616820        6 
C       2.67046996       1.70083530       0.89138873        6 
H       2.96655316       0.85588877       1.51291583        1 
H       2.80747683       2.61768334       1.46882672        1 
H       3.35217929       1.72639999       0.03857291        1 
H      -3.59834838       1.07028340      -0.01574806        1 
H      -3.15961053       1.24024337      -1.70041453        1 
H      -3.33167474       2.68673165      -0.68523129        1 
