30
Lattice="0.0 0.0 0.0 0.0 0.0 0.0 0.0 0.0 0.0" Properties=species:S:1:pos:R:3:Z:I:1 pbc="F F F"
C       0.72305185       0.46914491      -0.10330103        6 
C      -0.67353068       0.44900743       0.05421634        6 
C       1.45853515      -0.82477844      -0.32987545        6 
C      -1.32570797      -0.89640529       0.14622852        6 
O       2.21758786      -1.15819825       0.72539240        8 
O       1.40111218      -1.46048303      -1.35438563        8 
O      -2.52406308      -0.94146285      -0.46635677        8 
O      -0.82976117      -1.85534859       0.69215368        8 
C      -3.20663233      -2.20910685      -0.42472853        6 
C       2.88480362      -2.43226523       0.63523551        6 
C       1.43413301       1.67241421      -0.16037438        6 
C       0.70699062       2.85671165      -0.03163633        6 
C      -0.67080220       2.84271260       0.15121811        6 
C      -1.39608206       1.64938996       0.19294178        6 
H      -2.60591015      -2.97863676      -0.91094555        1 
H       2.14536132      -3.22787690       0.53424090        1 
H      -1.20142139       3.78174869       0.26643342        1 
H      -3.40255943      -2.50372290       0.60741787        1 
H      -4.13851363      -2.05134276      -0.96323280        1 
H       3.43626247      -2.53592008       1.56686931        1 
H       3.56190198      -2.45287125      -0.22008030        1 
H       1.23060160       3.80597121      -0.07288883        1 
C      -2.89147406       1.70558158       0.40885911        6 
C       2.92945060       1.69075057      -0.36298184        6 
H       3.44669006       1.26354045       0.50014174        1 
H       3.28876116       2.71065089      -0.50787873        1 
H       3.21863848       1.10364840      -1.23956845        1 
H      -3.21960545       1.01224679       1.18648285        1 
H      -3.43226842       1.43927318      -0.50163755        1 
H      -3.18869676       2.71296955       0.70591701        1 
