30
Lattice="0.0 0.0 0.0 0.0 0.0 0.0 0.0 0.0 0.0" Properties=species:S:1:pos:R:3:Z:I:1 pbc="F F F"
C       1.00766674      -0.16436708      -0.01673187        6 
C      -0.07488640       0.73565492      -0.07027241        6 
C       0.77124381      -1.64079776      -0.04364724        6 
C      -1.47715150       0.26314113      -0.35119412        6 
O      -0.48447601      -1.96098388       0.34023204        8 
O       1.59546356      -2.48140666      -0.32076331        8 
O      -2.26284910       0.37034758       0.73603969        8 
O      -1.87231712      -0.08284395      -1.43732028        8 
C      -3.63887107      -0.00970599       0.55554387        6 
C      -0.84067675      -3.35117486       0.26685790        6 
C       2.32665021       0.32097940       0.12149597        6 
C       2.50027347       1.70463833       0.20124481        6 
C       1.42680369       2.58397588       0.14430225        6 
C       0.11852666       2.12096279       0.00355696        6 
H      -4.11040122       0.60740069      -0.21100837        1 
H      -0.76304825      -3.70893801      -0.76084660        1 
H       1.60611607       3.65222951       0.20530429        1 
H      -3.70774808      -1.05842601       0.26157694        1 
H      -4.11294236       0.14851759       1.52168938        1 
H      -1.87071404      -3.40362369       0.61311441        1 
H      -0.18918294      -3.94644612       0.90809203        1 
H       3.50458968       2.09857756       0.31065188        1 
C      -1.04097963       3.08680289      -0.07292496        6 
C       3.54245453      -0.57012312       0.20530261        6 
H       3.44153730      -1.32151002       0.99127814        1 
H       4.42909570       0.03249899       0.41122367        1 
H       3.69722856      -1.12120164      -0.72369852        1 
H      -1.68073101       3.00261558       0.80934826        1 
H      -1.66610944       2.89328025      -0.94959080        1 
H      -0.68229076       4.11502091      -0.13870688        1 
