30
Lattice="0.0 0.0 0.0 0.0 0.0 0.0 0.0 0.0 0.0" Properties=species:S:1:pos:R:3:Z:I:1 pbc="F F F"
C       0.72234733       0.34798027      -0.12184070        6 
C      -0.68800247       0.35998688       0.00865702        6 
C       1.45558933      -0.97201956      -0.09525651        6 
C      -1.53143988      -0.83613190      -0.35415531        6 
O       2.53871022      -0.88491305       0.72051782        8 
O       1.13744105      -2.00651947      -0.62091589        8 
O      -2.44629336      -1.10723627       0.60945725        8 
O      -1.40062490      -1.50740178      -1.34164926        8 
C      -3.32281803      -2.21712217       0.34286868        6 
C       3.30114274      -2.09464225       0.87140566        6 
C       1.45056008       1.55248019      -0.11852732        6 
C       0.74572830       2.74493170       0.05284977        6 
C      -0.62693520       2.75438715       0.24328437        6 
C      -1.37415214       1.57600814       0.20459912        6 
H      -3.91401014      -2.03136474      -0.55598171        1 
H       2.68317701      -2.88356905       1.30328159        1 
H      -1.14093644       3.69944309       0.38229425        1 
H      -2.74751089      -3.13406672       0.20791767        1 
H      -3.96838742      -2.29229496       1.21540948        1 
H       4.11935996      -1.83862150       1.54113319        1 
H       3.68336244      -2.43182185      -0.09370469        1 
H       1.28867011       3.68381423       0.03408477        1 
C      -2.88141568       1.66767563       0.31052772        6 
C       2.94519972       1.63010063      -0.33694055        6 
H       3.49278489       1.46268393       0.59284464        1 
H       3.20803730       2.61921579      -0.71780840        1 
H       3.29478999       0.88804739      -1.05620329        1 
H      -3.24718231       1.20736127       1.22985040        1 
H      -3.37847880       1.16032687      -0.52075583        1 
H      -3.19438010       2.71308626       0.29680943        1 
