30
Lattice="0.0 0.0 0.0 0.0 0.0 0.0 0.0 0.0 0.0" Properties=species:S:1:pos:R:3:Z:I:1 pbc="F F F"
C       0.67110592       0.44165246       0.09174999        6 
C      -0.71404592       0.45280488      -0.13852042        6 
C       1.34454753      -0.89612258       0.06872720        6 
C      -1.48609802      -0.83170821      -0.29957326        6 
O       2.53951852      -0.86452438      -0.55290914        8 
O       0.86891602      -1.91218752       0.52156212        8 
O      -1.97173407      -1.25492228       0.87677192        8 
O      -1.73357884      -1.34735127      -1.36301438        8 
C      -2.70089071      -2.49657304       0.84682864        6 
C       3.22881720      -2.12609460      -0.64705570        6 
C       1.37089419       1.64852579       0.28211983        6 
C       0.63577302       2.83421371       0.22651051        6 
C      -0.73069793       2.83857837      -0.03299692        6 
C      -1.43669856       1.64990038      -0.21406865        6 
H      -3.56458066      -2.41988083       0.18424809        1 
H       3.42949772      -2.52659313       0.34765141        1 
H      -1.26327023       3.78260428      -0.08201232        1 
H      -2.04825032      -3.30093901       0.50505135        1 
H      -3.01626359      -2.67011822       1.87310160        1 
H       4.15713443      -1.90847290      -1.17030025        1 
H       2.62844703      -2.84339559      -1.20824429        1 
H       1.14827344       3.77641601       0.38791905        1 
C      -2.92432889       1.65156984      -0.47477134        6 
C       2.85166714       1.71038827       0.57311341        6 
H       3.15561551       0.95496160       1.30048138        1 
H       3.11348894       2.69173544       0.97305246        1 
H       3.43968869       1.53824177      -0.33110607        1 
H      -3.46199032       1.10526924       0.30607898        1 
H      -3.15888203       1.17105520      -1.42850985        1 
H      -3.31231407       2.67084271      -0.50175404        1 
