30
Lattice="0.0 0.0 0.0 0.0 0.0 0.0 0.0 0.0 0.0" Properties=species:S:1:pos:R:3:Z:I:1 pbc="F F F"
C       0.01869577      -0.76913984       0.15343390        6 
C      -0.86148494       0.30181079      -0.14351606        6 
C       1.51462578      -0.63047406       0.07875005        6 
C      -0.45092484       1.71896596       0.13675760        6 
O       1.87852133      -0.20355559      -1.14771099        8 
O       2.30159505      -1.05026790       0.89359061        8 
O       0.88376877       1.90278690       0.17351810        8 
O      -1.22453992       2.60300128       0.43054740        8 
C       1.33299344       3.18964637       0.63122422        6 
C       3.29045027      -0.07791255      -1.37490964        6 
C      -0.45901026      -2.08643194       0.26889352        6 
C      -1.81821129      -2.30859668       0.03233075        6 
C      -2.66711492      -1.27690247      -0.33298616        6 
C      -2.22612908       0.04668497      -0.40202684        6 
H       1.01047775       3.97287584      -0.05624694        1 
H       3.71268483       0.67861999      -0.71044047        1 
H      -3.70800097      -1.49398681      -0.54787946        1 
H       0.93855787       3.39886710       1.62636904        1 
H       2.41843143       3.12250516       0.65488985        1 
H       3.39040057       0.22922888      -2.41365455        1 
H       3.79630628      -1.02912775      -1.20260542        1 
H      -2.20689371      -3.31869684       0.10777233        1 
C      -3.24019931       1.11211229      -0.74640931        6 
C       0.43359993      -3.26493335       0.58463901        6 
H       1.23827224      -3.37045743      -0.14803995        1 
H      -0.14933937      -4.18754359       0.57855127        1 
H       0.90789297      -3.15750884       1.56104063        1 
H      -2.83327860       1.87458243      -1.41055846        1 
H      -3.58278507       1.63231741       0.15065077        1 
H      -4.10365612       0.65060026      -1.23137172        1 
