30
Lattice="0.0 0.0 0.0 0.0 0.0 0.0 0.0 0.0 0.0" Properties=species:S:1:pos:R:3:Z:I:1 pbc="F F F"
C       0.73423987       0.47904787      -0.12910469        6 
C      -0.64212132       0.45338443       0.12876122        6 
C       1.47196055      -0.82204588      -0.29417766        6 
C      -1.31908185      -0.88519150       0.16854314        6 
O       2.04893567      -1.20592359       0.85310616        8 
O       1.56571583      -1.42239943      -1.33806998        8 
O      -2.34889401      -0.94681734      -0.69709022        8 
O      -0.99356909      -1.80541591       0.88121623        8 
C      -3.07056465      -2.19371408      -0.73418689        6 
C       2.69859909      -2.49252141       0.83367718        6 
C       1.43078810       1.68752615      -0.24134693        6 
C       0.70317471       2.86616521      -0.07441615        6 
C      -0.66122614       2.84372973       0.20139956        6 
C      -1.36847429       1.64423175       0.29377424        6 
H      -2.41277856      -3.00129359      -1.05825180        1 
H       1.96350971      -3.27221612       0.62952332        1 
H      -1.19165949       3.77955043       0.34222267        1 
H      -3.47461622      -2.43081376       0.25121071        1 
H      -3.87216060      -2.04062162      -1.45313987        1 
H       3.12063907      -2.61655793       1.82809715        1 
H       3.48046216      -2.51762988       0.07330051        1 
H       1.21588974       3.81890653      -0.15422298        1 
C      -2.85274798       1.65313105       0.57624149        6 
C       2.90973572       1.70377545      -0.53744645        6 
H       3.47331568       1.19046094       0.24711103        1 
H       3.28254552       2.72650887      -0.60915160        1 
H       3.12690830       1.19584278      -1.48170510        1 
H      -3.12994436       0.89843150       1.31656533        1 
H      -3.42544825       1.44109848      -0.33010309        1 
H      -3.16265116       2.62765639       0.95793553        1 
