30
Lattice="0.0 0.0 0.0 0.0 0.0 0.0 0.0 0.0 0.0" Properties=species:S:1:pos:R:3:Z:I:1 pbc="F F F"
C       0.77873613       0.43303038       0.05625961        6 
C      -0.62933542       0.49946515       0.06759512        6 
C       1.50670364      -0.86656147       0.29394167        6 
C      -1.35415002      -0.80924040       0.12904383        6 
O       1.71609921      -1.53304004      -0.85647014        8 
O       1.90368181      -1.22324189       1.37354205        8 
O      -2.65101765      -0.72712370      -0.23259825        8 
O      -0.84175466      -1.86168941       0.43851727        8 
C      -3.39057185      -1.96152898      -0.21464800        6 
C       2.29479849      -2.84506483      -0.71908075        6 
C       1.56901283       1.58013054      -0.07596396        6 
C       0.91484478       2.80651683      -0.18119426        6 
C      -0.47108868       2.88774888      -0.13310534        6 
C      -1.27850499       1.75409502      -0.01459960        6 
H      -2.96367920      -2.67164949      -0.92444669        1 
H       3.26985137      -2.78753095      -0.23337215        1 
H      -0.94465462       3.86145874      -0.19140158        1 
H      -3.37868191      -2.40138787       0.78344638        1 
H      -4.40397866      -1.69227715      -0.50495091        1 
H       2.39156016      -3.22669135      -1.73323534        1 
H       1.62912620      -3.47744814      -0.12968267        1 
H       1.49997356       3.71388524      -0.28877890        1 
C      -2.77600477       1.95779353       0.03825802        6 
C       3.07540213       1.49070862      -0.09195560        6 
H       3.45702165       1.12527967       0.86542146        1 
H       3.52017685       2.46758406      -0.28716815        1 
H       3.42173966       0.79969665      -0.86582799        1 
H      -3.22925540       1.43704894       0.88306019        1 
H      -3.26462235       1.57950739      -0.86163435        1 
H      -2.99867781       3.02249046       0.13049514        1 
