30
Lattice="0.0 0.0 0.0 0.0 0.0 0.0 0.0 0.0 0.0" Properties=species:S:1:pos:R:3:Z:I:1 pbc="F F F"
C       0.92393561       0.19619573      -0.17583056        6 
C      -0.44274980       0.50772009       0.08859049        6 
C       1.42759658      -1.20563102       0.04296710        6 
C      -1.43863626      -0.53257105      -0.36186638        6 
O       0.70836639      -1.82820053       1.00336351        8 
O       2.47972341      -1.64834014      -0.35816591        8 
O      -2.72451627      -0.14194760      -0.21732201        8 
O      -1.15705921      -1.61456477      -0.82201262        8 
C      -3.71968152      -1.08039198      -0.66118363        6 
C       1.06710387      -3.18984715       1.27627716        6 
C       1.89091807       1.20806880      -0.27478288        6 
C       1.47209582       2.52402336      -0.03302074        6 
C       0.17416690       2.81400225       0.34150388        6 
C      -0.82450034       1.83018279       0.38483839        6 
H      -3.59746653      -1.29593712      -1.72361807        1 
H       0.91409601      -3.80235586       0.38539751        1 
H      -0.09462562       3.83871124       0.57419096        1 
H      -3.64580888      -2.01147343      -0.09738853        1 
H      -4.67504193      -0.59361909      -0.47541837        1 
H       0.39976531      -3.50965225       2.07395652        1 
H       2.10867088      -3.26317192       1.59278409        1 
H       2.19900370       3.32603175      -0.10231955        1 
C      -2.22288235       2.28682372       0.73998007        6 
C       3.34681217       0.95899903      -0.58684605        6 
H       3.82598973       0.34544212       0.17948037        1 
H       3.87689121       1.91104422      -0.65309543        1 
H       3.46787698       0.41962412      -1.52665079        1 
H      -2.70075228       1.62042082       1.45681757        1 
H      -2.87051839       2.32086231      -0.13884583        1 
H      -2.17617826       3.28911220       1.17042014        1 
