30
Lattice="0.0 0.0 0.0 0.0 0.0 0.0 0.0 0.0 0.0" Properties=species:S:1:pos:R:3:Z:I:1 pbc="F F F"
C       0.99352956       0.08985757      -0.11180558        6 
C      -0.30446218       0.64812937       0.00709039        6 
C       1.18156998      -1.39597996      -0.01296247        6 
C      -1.46330415      -0.21510502      -0.40721763        6 
O       0.22225042      -1.96335738       0.75348388        8 
O       2.14592626      -2.01114304      -0.40421611        8 
O      -2.59067276       0.04555913       0.28556042        8 
O      -1.39970380      -1.07333962      -1.25551616        8 
C      -3.74341303      -0.73954308      -0.06850394        6 
C       0.26167562      -3.39468629       0.86133929        6 
C       2.13700604       0.90487441      -0.06035976        6 
C       1.93884641       2.27929916       0.11750580        6 
C       0.67268474       2.82133384       0.25809038        6 
C      -0.48036730       2.03005290       0.18892576        6 
H      -3.99097267      -0.60560648      -1.12259147        1 
H       0.10570750      -3.84844098      -0.11919829        1 
H       0.56534080       3.89144212       0.39927948        1 
H      -3.55586110      -1.79717241       0.12275971        1 
H      -4.54817715      -0.37289753       0.56515691        1 
H      -0.55219999      -3.65587226       1.53465832        1 
H       1.21800816      -3.72646189       1.26788162        1 
H       2.80427418       2.93139466       0.16009280        1 
C      -1.82751347       2.71354373       0.27137603        6 
C       3.54859729       0.37937788      -0.15990783        6 
H       3.75806598      -0.36862352       0.60798161        1 
H       4.25863529       1.20092041      -0.04815838        1 
H       3.72341896      -0.11166459      -1.11808552        1 
H      -2.38788152       2.38759537       1.14864690        1 
H      -2.45033796       2.49625224      -0.59977084        1 
H      -1.69102128       3.79483071       0.32670370        1 
