30
Lattice="0.0 0.0 0.0 0.0 0.0 0.0 0.0 0.0 0.0" Properties=species:S:1:pos:R:3:Z:I:1 pbc="F F F"
C       1.00318045      -0.07703907      -0.10940525        6 
C      -0.19758428       0.67096793       0.02800937        6 
C       0.99266016      -1.56871989       0.08731875        6 
C      -1.49730982       0.07012276      -0.43923315        6 
O      -0.23735407      -2.05521711       0.34786790        8 
O       1.97991749      -2.26400184       0.18369905        8 
O      -2.52239715       0.33677220       0.39760908        8 
O      -1.61659278      -0.58853385      -1.44197900        8 
C      -3.80238767      -0.19210594       0.00877433        6 
C      -0.32725650      -3.46258846       0.61506456        6 
C       2.25106866       0.57839892      -0.10610492        6 
C       2.25600146       1.96678557       0.07324189        6 
C       1.08854181       2.68156102       0.27196822        6 
C      -0.16451131       2.06055820       0.22652913        6 
H      -4.10754742       0.20927620      -0.95912700        1 
H       0.05368633      -4.03780567      -0.22993577        1 
H       1.13968437       3.75415632       0.42549918        1 
H      -3.75919566      -1.28051213      -0.05417761        1 
H      -4.49414763       0.11986217       0.78842807        1 
H      -1.38751145      -3.65824794       0.76143681        1 
H       0.23909781      -3.72100511       1.51142462        1 
H       3.20638712       2.48896714       0.07308490        1 
C      -1.40551228       2.92035317       0.33096401        6 
C       3.58149009      -0.11568405      -0.27393144        6 
H       3.83936449      -0.70746341       0.60686317        1 
H       4.36194635       0.63100036      -0.43493922        1 
H       3.57705614      -0.80919032      -1.11493964        1 
H      -1.98651302       2.68028592       1.22302276        1 
H      -2.06867117       2.78245698      -0.52685932        1 
H      -1.12698974       3.97460811       0.37167258        1 
