30
Lattice="0.0 0.0 0.0 0.0 0.0 0.0 0.0 0.0 0.0" Properties=species:S:1:pos:R:3:Z:I:1 pbc="F F F"
C       0.89812795      -0.32063243      -0.08308088        6 
C       0.03901745       0.77504285       0.13806054        6 
C       0.43764651      -1.71872213       0.21460397        6 
C      -1.46045438       0.63691797       0.17686049        6 
O      -0.85926424      -1.93824648      -0.08025148        8 
O       1.13123349      -2.55789355       0.74167346        8 
O      -1.93804095       0.35701890      -1.05061568        8 
O      -2.16362673       0.92618733       1.11522163        8 
C      -3.36540054       0.22777041      -1.15650635        6 
C      -1.39795537      -3.20867910       0.32727583        6 
C       2.26946046      -0.11085880      -0.33435848        6 
C       2.73082046       1.20574569      -0.35662138        6 
C       1.88897125       2.27798067      -0.08982388        6 
C       0.52802033       2.09036579       0.15364139        6 
H      -3.71729612      -0.59266284      -0.52805359        1 
H      -0.87709202      -4.02405621      -0.17651376        1 
H       2.28959806       3.28606155      -0.09181294        1 
H      -3.86201291       1.15012979      -0.85125974        1 
H      -3.55960830       0.01459840      -2.20532648        1 
H      -2.44479779      -3.18408523       0.03215932        1 
H      -1.30540996      -3.33376563       1.40702444        1 
H       3.77744534       1.39051176      -0.57289422        1 
C      -0.38084722       3.27466768       0.38471232        6 
C       3.24537794      -1.23556869      -0.58675472        6 
H       3.53900541      -1.71706937       0.34823045        1 
H       4.14077611      -0.84746772      -1.07645357        1 
H       2.81896302      -2.01631023      -1.21890057        1 
H      -0.86384142       3.22013685       1.36210422        1 
H      -1.17769327       3.31695816      -0.36450603        1 
H       0.18340602       4.20648653       0.32588808        1 
