30
Lattice="0.0 0.0 0.0 0.0 0.0 0.0 0.0 0.0 0.0" Properties=species:S:1:pos:R:3:Z:I:1 pbc="F F F"
C       0.91305134       0.29816673       0.07947129        6 
C      -0.46289899       0.60442585       0.04282977        6 
C       1.37772172      -1.12833813       0.18017263        6 
C      -1.41535337      -0.52538618       0.29106952        6 
O       0.95738076      -1.85185210      -0.87809103        8 
O       2.10367122      -1.55433870       1.04305898        8 
O      -2.61189236      -0.35075779      -0.30508396        8 
O      -1.14715766      -1.51680657       0.93081937        8 
C      -3.57336981      -1.40401279      -0.11007244        6 
C       1.21690315      -3.26586296      -0.81055803        6 
C       1.88974803       1.29451781      -0.04009852        6 
C       1.44963086       2.61171270      -0.18011614        6 
C       0.09682025       2.92411836      -0.19475986        6 
C      -0.89128951       1.94195568      -0.08324826        6 
H      -3.21061260      -2.33466667      -0.54901050        1 
H       2.28430985      -3.45875281      -0.69639879        1 
H      -0.20760011       3.96111258      -0.28732207        1 
H      -3.76212489      -1.55875270       0.95310534        1 
H      -4.47518657      -1.06776564      -0.61720956        1 
H       0.85050299      -3.67348771      -1.75037502        1 
H       0.67517241      -3.69645258       0.03357565        1 
H       2.18210545       3.40597007      -0.27659503        1 
C      -2.33919727       2.37919092      -0.07323125        6 
C       3.36488553       0.97285483      -0.03224195        6 
H       3.67859633       0.59495911       0.94302952        1 
H       3.95136918       1.86193352      -0.26902264        1 
H       3.61045137       0.19948326      -0.76546308        1 
H      -2.88527007       1.96991075       0.77921449        1 
H      -2.86267585       2.04687716      -0.97137234        1 
H      -2.39498847       3.46793057      -0.02199125        1 
