30
Lattice="0.0 0.0 0.0 0.0 0.0 0.0 0.0 0.0 0.0" Properties=species:S:1:pos:R:3:Z:I:1 pbc="F F F"
C       0.70893261       0.44650948       0.00525385        6 
C      -0.69880912       0.44680401       0.07881357        6 
C       1.35830436      -0.89914879      -0.09004485        6 
C      -1.45525732      -0.82738725       0.35968842        6 
O       2.66829729      -0.89979015       0.22370208        8 
O       0.76564168      -1.91220925      -0.38778890        8 
O      -2.19125087      -1.21145081      -0.69720606        8 
O      -1.45810949      -1.38495322       1.42919275        8 
C      -2.93233114      -2.43507774      -0.53056819        6 
C       3.32015038      -2.18302783       0.18002099        6 
C       1.40911169       1.66668597      -0.11145752        6 
C       0.65479912       2.84374922      -0.13082548        6 
C      -0.73070781       2.83265069      -0.04615274        6 
C      -1.43815265       1.63512758       0.06326762        6 
H      -2.24708443      -3.26005099      -0.33145955        1 
H       2.85321472      -2.86891462       0.88807689        1 
H      -1.27582597       3.77063340      -0.06201036        1 
H      -3.64175350      -2.34495088       0.29374507        1 
H      -3.45460744      -2.58756782      -1.47254107        1 
H       4.35422904      -1.98895925       0.45609656        1 
H       3.26137943      -2.60850267      -0.82286317        1 
H       1.17203632       3.79236592      -0.22336574        1 
C      -2.94560318       1.63620125       0.17385132        6 
C       2.90989752       1.78181383      -0.24108020        6 
H       3.41584948       1.43314182       0.66065602        1 
H       3.18597203       2.82335723      -0.41407645        1 
H       3.29459757       1.18221377      -1.06817489        1 
H      -3.28228910       1.07675614       1.05149517        1 
H      -3.40574311       1.17285596      -0.70258037        1 
H      -3.32387346       2.65589889       0.26080614        1 
