30
Lattice="0.0 0.0 0.0 0.0 0.0 0.0 0.0 0.0 0.0" Properties=species:S:1:pos:R:3:Z:I:1 pbc="F F F"
C       0.73119156       0.45622734       0.12155354        6 
C      -0.66861241       0.46515825       0.15384882        6 
C       1.48938549      -0.81918201       0.37209740        6 
C      -1.42763842      -0.81876825       0.34511955        6 
O       1.98857116      -1.31517886      -0.78256652        8 
O       1.62672638      -1.35065827       1.44246426        8 
O      -2.14651113      -1.11422919      -0.76240194        8 
O      -1.41885082      -1.50646651       1.33357585        8 
C      -2.96241671      -2.29961183      -0.68691912        6 
C       2.72776969      -2.54798156      -0.66883512        6 
C       1.45494353       1.63863229      -0.09119791        6 
C       0.73458534       2.82266091      -0.24582458        6 
C      -0.65618166       2.83389900      -0.20251290        6 
C      -1.38644618       1.66042434      -0.01755322        6 
H      -2.34370063      -3.17826083      -0.49897543        1 
H       3.59693438      -2.41449370      -0.02267888        1 
H      -1.18684243       3.77331728      -0.31562093        1 
H      -3.69972772      -2.20457216       0.11215582        1 
H      -3.45262578      -2.37420267      -1.65498322        1 
H       3.03608677      -2.79408491      -1.68238592        1 
H       2.09292046      -3.33356405      -0.25635196        1 
H       1.27204857       3.75309256      -0.39487064        1 
C      -2.89697429       1.69302100       0.00872514        6 
C       2.96360989       1.62998397      -0.13786792        6 
H       3.38446688       1.11276006       0.72936133        1 
H       3.35722241       2.64717173      -0.14744572        1 
H       3.32436317       1.11371904      -1.03199573        1 
H      -3.30052205       1.08813191       0.82531188        1 
H      -3.31499902       1.30111877      -0.92241506        1 
H      -3.25607188       2.71497175       0.14095466        1 
