30
Lattice="0.0 0.0 0.0 0.0 0.0 0.0 0.0 0.0 0.0" Properties=species:S:1:pos:R:3:Z:I:1 pbc="F F F"
C       0.67053581      -0.58329471      -0.09486956        6 
C       0.31357340       0.76177869       0.18715700        6 
C      -0.30503994      -1.69702364       0.16822779        6 
C      -1.10229430       1.23766081       0.02138497        6 
O      -1.53575200      -1.26155999       0.51588134        8 
O      -0.01389747      -2.87104257       0.23028021        8 
O      -1.60818598       0.79261592      -1.15078454        8 
O      -1.65909661       2.06333809       0.70506554        8 
C      -2.96410291       1.16951969      -1.43264506        6 
C      -2.48280702      -2.26952276       0.90505988        6 
C       2.01924973      -0.92709033      -0.32000557        6 
C       2.97278199       0.09127100      -0.21198071        6 
C       2.62578998       1.38217572       0.14794091        6 
C       1.29082066       1.75646458       0.33842067        6 
H      -3.63328012       0.77096685      -0.66707239        1 
H      -2.66885607      -2.95756286       0.07893430        1 
H       3.40138182       2.13324237       0.25302692        1 
H      -3.06740892       2.25518147      -1.46782781        1 
H      -3.19122893       0.73137534      -2.40220383        1 
H      -3.38898308      -1.72582629       1.16375295        1 
H      -2.11372900      -2.83145196       1.76419286        1 
H       4.01481496      -0.14940917      -0.39218261        1 
C       0.96552343       3.19885800       0.64855447        6 
C       2.50227431      -2.31781092      -0.65884325        6 
H       2.47059518      -2.97277836       0.21444342        1 
H       3.53118269      -2.26680796      -1.02155974        1 
H       1.88293850      -2.79378391      -1.41911969        1 
H       0.45955532       3.29530470       1.61007493        1 
H       0.29711767       3.63419491      -0.09864778        1 
H       1.88242212       3.79003489       0.67180333        1 
