30
Lattice="0.0 0.0 0.0 0.0 0.0 0.0 0.0 0.0 0.0" Properties=species:S:1:pos:R:3:Z:I:1 pbc="F F F"
C       0.66124349       0.49149411      -0.14071497        6 
C      -0.70962842       0.47399264       0.12799293        6 
C       1.39788785      -0.81587441      -0.22338566        6 
C      -1.42924868      -0.83878829       0.27686867        6 
O       2.12558189      -1.03143691       0.88851896        8 
O       1.35647068      -1.58069640      -1.15632071        8 
O      -1.84033284      -1.30532905      -0.91288288        8 
O      -1.65304171      -1.38439221       1.33112578        8 
C      -2.52835726      -2.57200330      -0.89755708        6 
C       2.85798426      -2.27237528       0.93457758        6 
C       1.35203115       1.70168008      -0.29162705        6 
C       0.61524024       2.88147472      -0.18718428        6 
C      -0.75170431       2.86281180       0.08116851        6 
C      -1.44329596       1.66270010       0.24232032        6 
H      -1.87033976      -3.35249405      -0.51335335        1 
H       2.17157838      -3.11781779       0.87106200        1 
H      -1.29409460       3.79905798       0.16040804        1 
H      -3.42343834      -2.51272048      -0.27656677        1 
H      -2.78879558      -2.76937865      -1.93465347        1 
H       3.37138068      -2.26761461       1.89314263        1 
H       3.57327775      -2.32463667       0.11232403        1 
H       1.12082679       3.83268048      -0.31533365        1 
C      -2.92669070       1.63482914       0.52220417        6 
C       2.83569362       1.71841491      -0.56396001        6 
H       3.39637899       1.38454424       0.31372744        1 
H       3.17385026       2.72279788      -0.82332062        1 
H       3.09510101       1.05143499      -1.39138790        1 
H      -3.13991883       1.14531973       1.47664495        1 
H      -3.46445281       1.08314759      -0.25525860        1 
H      -3.33538424       2.64571632       0.55994532        1 
