30
Lattice="0.0 0.0 0.0 0.0 0.0 0.0 0.0 0.0 0.0" Properties=species:S:1:pos:R:3:Z:I:1 pbc="F F F"
C       1.01053990      -0.14380254      -0.00488705        6 
C      -0.08388451       0.73667439      -0.08040324        6 
C       0.79467799      -1.62171330      -0.07832511        6 
C      -1.47528431       0.22401206      -0.34115834        6 
O      -0.40620802      -1.98054621       0.42764910        8 
O       1.58927452      -2.42623051      -0.50534697        8 
O      -2.25592580       0.34517241       0.74793002        8 
O      -1.86950853      -0.16555119      -1.41314254        8 
C      -3.62450172      -0.07111984       0.58973954        6 
C      -0.76985384      -3.36469339       0.28902213        6 
C       2.31905610       0.35782021       0.15278102        6 
C       2.47234386       1.74349111       0.23078837        6 
C       1.38697760       2.60717800       0.14378579        6 
C       0.08748571       2.12523178      -0.01486394        6 
H      -4.11337635       0.50804264      -0.19532073        1 
H      -0.85365560      -3.62775968      -0.76658982        1 
H       1.55031501       3.67833013       0.19823571        1 
H      -3.67168505      -1.13095853       0.33391526        1 
H      -4.09609873       0.11113086       1.55280026        1 
H      -1.73353795      -3.46109676       0.78456709        1 
H      -0.02683811      -4.00521188       0.76543744        1 
H       3.46826448       2.15257778       0.36019033        1 
C      -1.08535688       3.07215865      -0.11405164        6 
C       3.53743246      -0.52710382       0.25865883        6 
H       3.40499381      -1.31342187       1.00498327        1 
H       4.40882840       0.06936633       0.53473022        1 
H       3.74148789      -1.03342015      -0.68647691        1 
H      -1.72752132       2.99398903       0.76719932        1 
H      -1.70442961       2.85372261      -0.98924060        1 
H      -0.74207000       4.10438685      -0.19659074        1 
