30
Lattice="0.0 0.0 0.0 0.0 0.0 0.0 0.0 0.0 0.0" Properties=species:S:1:pos:R:3:Z:I:1 pbc="F F F"
C      -0.55910760      -0.68067643      -0.09307198        6 
C      -0.50307280       0.71897098       0.10143184        6 
C       0.67958564      -1.51441197       0.01055673        6 
C       0.80594945       1.44116102       0.02042680        6 
O       1.54122371      -1.00998067       0.92375351        8 
O       0.86300758      -2.57335904      -0.54257784        8 
O       1.55118983       0.97227739      -1.00712178        8 
O       1.13212785       2.38791169       0.69504436        8 
C       2.85291426       1.56010371      -1.15886562        6 
C       2.76993056      -1.73459709       1.09511059        6 
C      -1.79743775      -1.34309498      -0.20302766        6 
C      -2.95418947      -0.56293925      -0.11067266        6 
C      -2.89717777       0.80571931       0.09823147        6 
C      -1.67812711       1.48232983       0.20312276        6 
H       2.77360565       2.63772976      -1.30770506        1 
H       2.56959382      -2.76045148       1.40730476        1 
H      -3.81949804       1.37230464       0.17071283        1 
H       3.46121336       1.36504982      -0.27328443        1 
H       3.28631895       1.08175191      -2.03455026        1 
H       3.31627601      -1.19759157       1.86732560        1 
H       3.33520798      -1.74947789       0.16128170        1 
H      -3.92075267      -1.04880093      -0.19055610        1 
C      -1.68415372       2.98072706       0.39244227        6 
C      -1.94335153      -2.83578089      -0.38593739        6 
H      -1.54072398      -3.16136338      -1.34637612        1 
H      -2.99772875      -3.11497158      -0.33499380        1 
H      -1.40301927      -3.39601152       0.38028511        1 
H      -1.09150444       3.49009206      -0.37125283        1 
H      -1.25591125       3.25915060       1.35663461        1 
H      -2.70681117       3.35783838       0.33912303        1 
