30
Lattice="0.0 0.0 0.0 0.0 0.0 0.0 0.0 0.0 0.0" Properties=species:S:1:pos:R:3:Z:I:1 pbc="F F F"
C      -0.28035587      -0.72845378       0.15129616        6 
C      -0.75826127       0.59062870      -0.03151369        6 
C       1.18442971      -1.07227663       0.15925008        6 
C       0.15822463       1.76457735       0.10587257        6 
O       1.72313281      -0.87463673      -1.06229694        8 
O       1.76969619      -1.59872450       1.07277045        8 
O       1.39959911       1.40256957       0.49433695        8 
O      -0.15930572       2.92605582      -0.01911332        8 
C       2.34366991       2.46294776       0.70597133        6 
C       3.11806552      -1.19700593      -1.18901081        6 
C      -1.15603251      -1.82416001       0.19911151        6 
C      -2.52068246      -1.57178617       0.05283210        6 
C      -2.99773832      -0.28610719      -0.14631504        6 
C      -2.14660512       0.82138633      -0.18463278        6 
H       2.53285976       2.99675518      -0.22699666        1 
H       3.71369460      -0.55564305      -0.53657715        1 
H      -4.06391126      -0.12894985      -0.26768581        1 
H       1.96858098       3.16455992       1.45217317        1 
H       3.24846612       1.97411599       1.06055434        1 
H       3.36458868      -1.01427146      -2.23267348        1 
H       3.29766111      -2.24050815      -0.92664269        1 
H      -3.21853634      -2.40220987       0.08134403        1 
C      -2.77550912       2.18100216      -0.37487237        6 
C      -0.67231332      -3.24539988       0.37452198        6 
H       0.08370286      -3.51026414      -0.37014029        1 
H      -1.50465803      -3.94334272       0.26847015        1 
H      -0.21889439      -3.39347547       1.35679116        1 
H      -2.35613386       2.70691079      -1.23326862        1 
H      -2.60760184       2.82659055       0.48961730        1 
H      -3.85141591       2.06645323      -0.52173310        1 
