30
Lattice="0.0 0.0 0.0 0.0 0.0 0.0 0.0 0.0 0.0" Properties=species:S:1:pos:R:3:Z:I:1 pbc="F F F"
C       0.76297298       0.45888416       0.14181601        6 
C      -0.63950397       0.46727300      -0.01230787        6 
C       1.53443766      -0.82618785       0.30769164        6 
C      -1.32269893      -0.86028813       0.10297980        6 
O       1.79358704      -1.38808228      -0.88667169        8 
O       1.97803706      -1.21991916       1.35776709        8 
O      -2.66691262      -0.78150951       0.16448412        8 
O      -0.74444488      -1.92368283       0.15427882        8 
C      -3.36655136      -2.03321598       0.29037459        6 
C       2.43439536      -2.67627845      -0.84336297        6 
C       1.51338974       1.63941304       0.12957509        6 
C       0.82650986       2.83867564      -0.05372830        6 
C      -0.55093599       2.85859223      -0.22692239        6 
C      -1.32082098       1.69271442      -0.20524893        6 
H      -3.17468101      -2.66614022      -0.57732547        1 
H       3.38591413      -2.61721548      -0.31328493        1 
H      -1.05122799       3.80844734      -0.38034979        1 
H      -3.05175147      -2.55713827       1.19356299        1 
H      -4.42006758      -1.76743103       0.34611529        1 
H       2.58831972      -2.95865934      -1.88260056        1 
H       1.77907825      -3.39156047      -0.34362250        1 
H       1.38140758       3.77076043      -0.07016488        1 
C      -2.81344092       1.83940852      -0.40308321        6 
C       3.01298461       1.61913194       0.30210253        6 
H       3.28963340       1.22294429       1.28210468        1 
H       3.42564422       2.62414362       0.20509051        1 
H       3.48911374       0.98350146      -0.45036235        1 
H      -3.36822575       1.55493134       0.49282630        1 
H      -3.18237197       1.20802150      -1.21271569        1 
H      -3.04895195       2.87838087      -0.64031078        1 
