30
Lattice="0.0 0.0 0.0 0.0 0.0 0.0 0.0 0.0 0.0" Properties=species:S:1:pos:R:3:Z:I:1 pbc="F F F"
C      -0.53159417      -0.66702093       0.13289130        6 
C      -0.44549384       0.72771987      -0.13304099        6 
C       0.65067432      -1.55683178      -0.11852412        6 
C       0.84629160       1.45422504       0.09383955        6 
O       1.59354736      -0.94541056      -0.87374935        8 
O       0.70799231      -2.73974621       0.13148215        8 
O       1.55783887       0.86832829       1.08574174        8 
O       1.15424356       2.52217863      -0.38183004        8 
C       2.82508158       1.46929840       1.38826388        6 
C       2.72040123      -1.75251860      -1.24798079        6 
C      -1.78607693      -1.28396737       0.30765724        6 
C      -2.92557524      -0.48097683       0.16788384        6 
C      -2.83986186       0.85665768      -0.16963618        6 
C      -1.60473067       1.50208472      -0.31090346        6 
H       3.48518153       1.41654711       0.51988036        1 
H       3.25028026      -2.10668295      -0.36187872        1 
H      -3.74993568       1.43220982      -0.30035937        1 
H       2.69958879       2.51295424       1.67996849        1 
H       3.23178110       0.88671687       2.21216292        1 
H       3.35701343      -1.09954259      -1.84124886        1 
H       2.39707702      -2.61216657      -1.83706804        1 
H      -3.90185422      -0.93508960       0.30029485        1 
C      -1.59860099       2.98198730      -0.60993611        6 
C      -1.99367751      -2.75149453       0.60308715        6 
H      -1.66235269      -3.38252693      -0.22488522        1 
H      -3.05476818      -2.93991284       0.77939764        1 
H      -1.42770719      -3.07429064       1.47692138        1 
H      -1.08149089       3.19679334      -1.54597041        1 
H      -1.08180070       3.55267436       0.16467400        1 
H      -2.62471069       3.34769510      -0.68214444        1 
