30
Lattice="0.0 0.0 0.0 0.0 0.0 0.0 0.0 0.0 0.0" Properties=species:S:1:pos:R:3:Z:I:1 pbc="F F F"
C       0.58408042       0.46278397      -0.12097565        6 
C      -0.80365325       0.42072393       0.10780692        6 
C       1.40443166      -0.80122596      -0.14227512        6 
C      -1.56601867      -0.87074617       0.23502189        6 
O       2.31710634      -0.77502097       0.85732357        8 
O       1.28650472      -1.73307456      -0.89627296        8 
O      -1.47430494      -1.61772925      -0.87239996        8 
O      -2.27284067      -1.15117547       1.17642514        8 
C      -2.16692905      -2.87878977      -0.85527750        6 
C       3.17853203      -1.92433416       0.95190960        6 
C       1.24721880       1.69064490      -0.28730045        6 
C       0.48622849       2.85726463      -0.22409576        6 
C      -0.88000343       2.81693740       0.02558266        6 
C      -1.55305252       1.60814517       0.20043676        6 
H      -1.78003820      -3.51292916      -0.05617483        1 
H       2.59127353      -2.82793698       1.12270243        1 
H      -1.44267447       3.74306982       0.07438362        1 
H      -3.23741216      -2.72618151      -0.70810131        1 
H      -1.96832102      -3.32643188      -1.82603496        1 
H       3.83179794      -1.72676443       1.79882875        1 
H       3.75987614      -2.04356335       0.03597145        1 
H       0.97409445       3.81450680      -0.37409259        1 
C      -3.04402790       1.60651038       0.45083055        6 
C       2.73175503       1.77063157      -0.55545516        6 
H       3.30640485       1.62710183       0.36280087        1 
H       2.98981480       2.74607896      -0.97176360        1 
H       3.05662290       1.00757411      -1.26744047        1 
H      -3.27610007       1.24196166       1.45313685        1 
H      -3.57247281       0.95749428      -0.25312433        1 
H      -3.44446785       2.61575997       0.34309323        1 
