30
Lattice="0.0 0.0 0.0 0.0 0.0 0.0 0.0 0.0 0.0" Properties=species:S:1:pos:R:3:Z:I:1 pbc="F F F"
C       0.87808745       0.34650517       0.07023643        6 
C      -0.51134995       0.57980946       0.06181341        6 
C       1.42718889      -1.04676675       0.22239138        6 
C      -1.39916111      -0.61057212       0.25694446        6 
O       1.17951604      -1.78884783      -0.87504778        8 
O       2.06009739      -1.42986057       1.17310268        8 
O      -2.60891455      -0.46936224      -0.32154218        8 
O      -1.07332900      -1.61973508       0.83983562        8 
C      -3.51008445      -1.58281691      -0.17892959        6 
C       1.52544198      -3.18351495      -0.77735378        6 
C       1.79871896       1.39207582      -0.06670484        6 
C       1.29016472       2.68444866      -0.19617916        6 
C      -0.07747841       2.92690407      -0.17618137        6 
C      -1.01073810       1.89489968      -0.04992823        6 
H      -3.09893195      -2.46895007      -0.66491282        1 
H       2.59031768      -3.30480064      -0.57422073        1 
H      -0.43639107       3.94731183      -0.25602258        1 
H      -3.68561891      -1.80124314       0.87529146        1 
H      -4.43108598      -1.27136021      -0.66707642        1 
H       1.26651067      -3.61433568      -1.74215487        1 
H       0.94519789      -3.64759530       0.02182435        1 
H       1.97795411       3.51589993      -0.30709438        1 
C      -2.47841192       2.25850859      -0.01223109        6 
C       3.28654420       1.13730292      -0.07765099        6 
H       3.63149154       0.78711369       0.89812455        1 
H       3.83104336       2.04787312      -0.33233730        1 
H       3.55442792       0.36737451      -0.80691726        1 
H      -2.99607975       1.79032778       0.82717122        1 
H      -2.99254449       1.93514562      -0.91928590        1 
H      -2.58678538       3.34047237       0.08058664        1 
