30
Lattice="0.0 0.0 0.0 0.0 0.0 0.0 0.0 0.0 0.0" Properties=species:S:1:pos:R:3:Z:I:1 pbc="F F F"
C      -0.50285826      -0.69015568       0.09328631        6 
C      -0.61832801       0.70688963      -0.02241011        6 
C       0.84207726      -1.35087619       0.16895973        6 
C       0.60988128       1.55896120      -0.06515987        6 
O       1.56416541      -1.10232409      -0.94467313        8 
O       1.22558766      -2.04555159       1.07644205        8 
O       1.49959920       1.17743904       0.87643168        8 
O       0.79813889       2.47841098      -0.82452292        8 
C       2.76205283       1.86400577       0.87486998        6 
C       2.89009586      -1.65992343      -0.97308113        6 
C      -1.64131007      -1.51242795       0.12530113        6 
C      -2.88794819      -0.89252377       0.03535648        6 
C      -3.00556999       0.48719120      -0.07647439        6 
C      -1.88421561       1.31711682      -0.11384081        6 
H       3.25904102       1.74335750      -0.08941711        1 
H       3.48025833      -1.27800988      -0.13829476        1 
H      -3.99275327       0.93275249      -0.13492599        1 
H       2.61900603       2.92724923       1.07275917        1 
H       3.34246954       1.40077283       1.66962124        1 
H       3.31615812      -1.34448614      -1.92283047        1 
H       2.84875670      -2.74854454      -0.91312183        1 
H      -3.78371394      -1.50469903       0.05225988        1 
C      -2.06445950       2.81080399      -0.23289122        6 
C      -1.55044509      -3.01642586       0.24083330        6 
H      -0.88244766      -3.44216131      -0.51313059        1 
H      -2.53554967      -3.46660575       0.10577546        1 
H      -1.16305731      -3.31484382       1.21730290        1 
H      -1.73126995       3.17133986      -1.20800820        1 
H      -1.48451595       3.35100089       0.51887850        1 
H      -3.11608493       3.07518922      -0.10490603        1 
