30
Lattice="0.0 0.0 0.0 0.0 0.0 0.0 0.0 0.0 0.0" Properties=species:S:1:pos:R:3:Z:I:1 pbc="F F F"
C      -0.04927202      -0.77726046       0.11559879        6 
C      -0.91809920       0.31411413      -0.02614817        6 
C       1.43152675      -0.58179636       0.29488087        6 
C      -0.42320884       1.69809501       0.26769274        6 
O       2.05600175      -0.54195861      -0.89467518        8 
O       2.00433751      -0.56907363       1.35755905        8 
O       0.64450595       2.02662831      -0.48558840        8 
O      -0.88499609       2.41721516       1.12013028        8 
C       1.27807714       3.28172923      -0.17029800        6 
C       3.48700908      -0.39302755      -0.85054674        6 
C      -0.52464384      -2.09644529       0.03622507        6 
C      -1.88522742      -2.28253494      -0.20320645        6 
C      -2.74730414      -1.20193413      -0.35790270        6 
C      -2.29373017       0.11159976      -0.24725680        6 
H       0.57019624       4.10461042      -0.27580376        1 
H       3.75392957       0.54705205      -0.36491323        1 
H      -3.79874397      -1.38231454      -0.55526340        1 
H       1.66030178       3.26271705       0.85160932        1 
H       2.09183011       3.38039503      -0.88515267        1 
H       3.80913989      -0.39280677      -1.88927184        1 
H       3.94215416      -1.22056677      -0.30404561        1 
H      -2.27597901      -3.29219843      -0.27588150        1 
C      -3.26733067       1.25910699      -0.36643038        6 
C       0.39814257      -3.27881632       0.20760381        6 
H       1.23311168      -3.24093530      -0.49831494        1 
H      -0.13858937      -4.21429133       0.04188323        1 
H       0.82262055      -3.30431597       1.21516237        1 
H      -2.90080531       2.03655416      -1.04181621        1 
H      -3.43469896       1.73159661       0.60431143        1 
H      -4.22634156       0.90499299      -0.74883772        1 
