30
Lattice="0.0 0.0 0.0 0.0 0.0 0.0 0.0 0.0 0.0" Properties=species:S:1:pos:R:3:Z:I:1 pbc="F F F"
C       0.03977171      -0.77007147      -0.13401274        6 
C      -0.86090218       0.28385499       0.16665492        6 
C       1.53122225      -0.60245713      -0.04157503        6 
C      -0.48113086       1.70801204      -0.12356025        6 
O       1.86992132      -0.12851360       1.17536966        8 
O       2.33864416      -1.03355087      -0.83021499        8 
O       0.84869659       1.90935852      -0.21808576        8 
O      -1.27670168       2.58131491      -0.38976567        8 
C       1.26042491       3.20102583      -0.69639853        6 
C       3.27559149       0.04070793       1.41083431        6 
C      -0.41447922      -2.09398550      -0.26622717        6 
C      -1.77027057      -2.34175028      -0.03247524        6 
C      -2.63656091      -1.32956387       0.34479945        6 
C      -2.22020703       0.00187753       0.42421570        6 
H       0.83648103       3.39406374      -1.68277127        1 
H       3.80735579      -0.90235186       1.27535086        1 
H      -3.67319255      -1.56739619       0.55834482        1 
H       0.93989899       3.98364162      -0.00741808        1 
H       2.34598638       3.15468122      -0.74798639        1 
H       3.35816642       0.38524477       2.43932328        1 
H       3.68502522       0.78487220       0.72452662        1 
H      -2.14207796      -3.35721548      -0.12023462        1 
C      -3.25628637       1.04442686       0.77334193        6 
C       0.49470510      -3.25438871      -0.60116368        6 
H       0.97114990      -3.12135456      -1.57319402        1 
H      -0.07712820      -4.18386674      -0.61615353        1 
H       1.29843490      -3.36446544       0.13164758        1 
H      -3.60328752       1.56773423      -0.12018184        1 
H      -2.86782169       1.80731493       1.44798621        1 
H      -4.11357274       0.56069143       1.24758704        1 
