30
Lattice="0.0 0.0 0.0 0.0 0.0 0.0 0.0 0.0 0.0" Properties=species:S:1:pos:R:3:Z:I:1 pbc="F F F"
C      -0.46851272      -0.70001489       0.08477819        6 
C      -0.66934395       0.68659047       0.00638926        6 
C       0.91087355      -1.27591157       0.24271235        6 
C       0.50835001       1.60133308      -0.12434899        6 
O       1.60879846      -1.18715944      -0.90785535        8 
O       1.34521325      -1.75498118       1.25922198        8 
O       1.42741913       1.36300821       0.83251762        8 
O       0.64829244       2.42744274      -0.99372556        8 
C       2.65447617       2.10818039       0.73497561        6 
C       2.96019022      -1.68411739      -0.86450883        6 
C      -1.55465123      -1.59074284       0.09765454        6 
C      -2.83713373      -1.04976719       0.02333274        6 
C      -3.03974095       0.32431612      -0.04869632        6 
C      -1.97031149       1.21895541      -0.07345765        6 
H       3.14526976       1.90717709      -0.21889692        1 
H       3.54104782      -1.13586209      -0.12110729        1 
H      -4.05216997       0.71155788      -0.09283411        1 
H       2.45841319       3.17810175       0.81783201        1 
H       3.26629428       1.76415748       1.56570751        1 
H       3.35975226      -1.52279989      -1.86297554        1 
H       2.96760062      -2.74584584      -0.61315425        1 
H      -3.69340573      -1.71620023       0.02589223        1 
C      -2.23102775       2.70151330      -0.18161457        6 
C      -1.35353455      -3.08443367       0.19485006        6 
H      -0.65197082      -3.44675501      -0.56240443        1 
H      -2.29910942      -3.61054296       0.05232638        1 
H      -0.94858817      -3.36346259       1.17100571        1 
H      -1.93657324       3.07948731      -1.16323943        1 
H      -1.66470683       3.26941189       0.56079146        1 
H      -3.29153197       2.91176312      -0.03170079        1 
