30
Lattice="0.0 0.0 0.0 0.0 0.0 0.0 0.0 0.0 0.0" Properties=species:S:1:pos:R:3:Z:I:1 pbc="F F F"
C       0.68083984       0.52174047       0.16003826        6 
C      -0.71496401       0.46146456       0.12590520        6 
C       1.46920836      -0.73820818       0.38424547        6 
C      -1.42960722      -0.83861282       0.37931253        6 
O       2.04919421      -1.15011881      -0.76387132        8 
O       1.57447827      -1.32192127       1.43272562        8 
O      -1.79927680      -1.42016826      -0.78279189        8 
O      -1.65282549      -1.31007282       1.46411412        8 
C      -2.51802555      -2.66505460      -0.66422664        6 
C       2.83050188      -2.35844985      -0.67717055        6 
C       1.35395683       1.73783944      -0.02847614        6 
C       0.58133798       2.88067673      -0.23272513        6 
C      -0.80923815       2.81864209      -0.27313953        6 
C      -1.48552717       1.61172036      -0.10068641        6 
H      -1.90732269      -3.40902880      -0.15074155        1 
H       3.65508917      -2.23108573       0.02604374        1 
H      -1.38063456       3.72595363      -0.43880354        1 
H      -3.44538405      -2.51782225      -0.10807955        1 
H      -2.72702607      -2.97572465      -1.68531698        1 
H       3.20546563      -2.53183264      -1.68321265        1 
H       2.20675989      -3.19156936      -0.34973246        1 
H       1.07613840       3.83671318      -0.36544805        1 
C      -2.99326611       1.54062469      -0.14751420        6 
C       2.86129473       1.80303796      -0.00782108        6 
H       3.27000750       1.27446199       0.85805937        1 
H       3.20529217       2.83746867       0.03549763        1 
H       3.28495247       1.33896171      -0.90324449        1 
H      -3.39891356       1.10242842       0.76933003        1 
H      -3.33239046       0.92165155      -0.98347751        1 
H      -3.42650382       2.53479027      -0.26598885        1 
