30
Lattice="0.0 0.0 0.0 0.0 0.0 0.0 0.0 0.0 0.0" Properties=species:S:1:pos:R:3:Z:I:1 pbc="F F F"
C       0.89972354       0.24906446       0.18752287        6 
C      -0.47773527       0.49142379      -0.08047626        6 
C       1.47067356      -1.13216748       0.00401594        6 
C      -1.41878978      -0.61348686       0.32961288        6 
O       0.87852301      -1.74893640      -1.04226336        8 
O       2.48022076      -1.55425445       0.51840400        8 
O      -2.72086676      -0.25843211       0.26046327        8 
O      -1.08530367      -1.71380944       0.70462887        8 
C      -3.66832008      -1.25874352       0.67281847        6 
C       1.29588752      -3.09814386      -1.29618529        6 
C       1.81909183       1.30465863       0.27887392        6 
C       1.33819469       2.59827002       0.03682059        6 
C       0.02452253       2.82536545      -0.32977975        6 
C      -0.92444721       1.79456619      -0.37468533        6 
H      -3.59253376      -2.14242938       0.03734771        1 
H       2.36353186      -3.14131868      -1.51788212        1 
H      -0.29411997       3.83590438      -0.56168621        1 
H      -3.49333543      -1.54874451       1.70978059        1 
H      -4.64451649      -0.79046940       0.56414965        1 
H       0.71277488      -3.42400104      -2.15507273        1 
H       1.07830619      -3.72547139      -0.42953833        1 
H       2.02596471       3.43448221       0.09958373        1 
C      -2.34171439       2.18009833      -0.73829173        6 
C       3.28616791       1.11423126       0.57858680        6 
H       3.43544961       0.60979420       1.53370797        1 
H       3.78874801       2.08286721       0.60705382        1 
H       3.77527136       0.49211459      -0.17486040        1 
H      -2.99156725       2.19511408       0.13939138        1 
H      -2.78627724       1.48279021      -1.44735184        1 
H      -2.34175909       3.17739427      -1.18266160        1 
