30
Lattice="0.0 0.0 0.0 0.0 0.0 0.0 0.0 0.0 0.0" Properties=species:S:1:pos:R:3:Z:I:1 pbc="F F F"
C       0.63967626       0.46404019       0.15382805        6 
C      -0.73414949       0.45697325      -0.11597233        6 
C       1.37354259      -0.84713356       0.17174962        6 
C      -1.48491202      -0.83877965      -0.26684919        6 
O       2.28756426      -0.89689472      -0.81873643        8 
O       1.18225425      -1.75350753       0.94541469        8 
O      -1.78485323      -1.37171917       0.92544146        8 
O      -1.84669002      -1.29846534      -1.32461011        8 
C      -2.48637338      -2.63049857       0.90097796        6 
C       3.04756236      -2.11753252      -0.91650534        6 
C       1.33275469       1.67258707       0.32358861        6 
C       0.59859939       2.85557371       0.23544891        6 
C      -0.76443993       2.84636521      -0.04779765        6 
C      -1.45950732       1.65146458      -0.23053334        6 
H      -3.42919553      -2.53266138       0.36073126        1 
H       3.62261929      -2.28342665      -0.00399813        1 
H      -1.30223342       3.78580011      -0.12048510        1 
H      -1.86990577      -3.39247276       0.42216743        1 
H      -2.66065195      -2.88184047       1.94433706        1 
H       3.70871133      -1.97715710      -1.76842730        1 
H       2.38179578      -2.96568621      -1.08181407        1 
H       1.10517076       3.80295341       0.38600410        1 
C      -2.93928089       1.64155010      -0.53148714        6 
C       2.81545660       1.70388189       0.60403496        6 
H       3.10168532       0.95086445       1.34320294        1 
H       3.11335472       2.68098408       0.98815280        1 
H       3.38884557       1.50273441      -0.30466194        1 
H      -3.49148051       1.05510157       0.20956998        1 
H      -3.13892709       1.19681645      -1.50993528        1 
H      -3.34282396       2.65508676      -0.52557535        1 
