30
Lattice="0.0 0.0 0.0 0.0 0.0 0.0 0.0 0.0 0.0" Properties=species:S:1:pos:R:3:Z:I:1 pbc="F F F"
C       0.89202602       0.27751182      -0.18115803        6 
C      -0.48902091       0.48152165       0.09723260        6 
C       1.50234224      -1.08873528      -0.01618492        6 
C      -1.40204768      -0.65206489      -0.29712527        6 
O       0.96709167      -1.71526989       1.05385655        8 
O       2.49670234      -1.48932670      -0.57525151        8 
O      -2.71107875      -0.31970741      -0.25481959        8 
O      -1.04309546      -1.75356790      -0.64445391        8 
C      -3.63448670      -1.34457022      -0.66134775        6 
C       1.41241543      -3.06061030       1.28131049        6 
C       1.78067451       1.35758576      -0.28707170        6 
C       1.26689430       2.63800338      -0.04509256        6 
C      -0.04984923       2.82993049       0.33160670        6 
C      -0.96930525       1.77371054       0.38865804        6 
H      -3.44430471      -1.64415904      -1.69290034        1 
H       1.15064204      -3.68761428       0.42672973        1 
H      -0.39471231       3.83220802       0.56176894        1 
H      -3.54682089      -2.21805872      -0.01359572        1 
H      -4.62071042      -0.89435244      -0.56785072        1 
H       0.88254781      -3.39381451       2.17126687        1 
H       2.49133991      -3.09329640       1.44085968        1 
H       1.93017780       3.49287021      -0.11816377        1 
C      -2.39373585       2.12147269       0.76203543        6 
C       3.24790098       1.20423745      -0.60701924        6 
H       3.76218943       0.58790466       0.13424542        1 
H       3.72769657       2.18440871      -0.63482189        1 
H       3.39506787       0.71110822      -1.56847426        1 
H      -2.81707538       1.41062210       1.47064811        1 
H      -3.04836641       2.12430581      -0.11214657        1 
H      -2.41631268       3.11660085       1.21084017        1 
