30
Lattice="0.0 0.0 0.0 0.0 0.0 0.0 0.0 0.0 0.0" Properties=species:S:1:pos:R:3:Z:I:1 pbc="F F F"
C       0.72097327       0.39834292      -0.05529983        6 
C      -0.69806493       0.39538752       0.04195172        6 
C       1.40597483      -0.90350558       0.26570903        6 
C      -1.42033670      -0.87140953      -0.34203101        6 
O       2.68356662      -0.96231023      -0.16526910        8 
O       0.86786111      -1.83620286       0.81292194        8 
O      -2.56343675      -1.05115103       0.35125047        8 
O      -1.01512409      -1.66211500      -1.15762808        8 
C      -3.29544834      -2.25334685       0.05084467        6 
C       3.36351823      -2.20736993       0.07727301        6 
C       1.42916055       1.61413234      -0.08043060        6 
C       0.68485055       2.80073267      -0.02685783        6 
C      -0.69255598       2.79380436       0.08842263        6 
C      -1.42130339       1.59767646       0.10166447        6 
H      -3.59180399      -2.27039212      -0.99934823        1 
H       3.40271418      -2.42141306       1.14636400        1 
H      -1.22824789       3.73564526       0.14015125        1 
H      -2.68422664      -3.13085588       0.26591784        1 
H      -4.17110163      -2.22641843       0.69596715        1 
H       4.36509112      -2.07165038      -0.32519926        1 
H       2.84932474      -3.02352089      -0.43231059        1 
H       1.21074298       3.74879186      -0.05272625        1 
C      -2.93214333       1.68154988       0.13270272        6 
C       2.93501461       1.73431027      -0.13151102        6 
H       3.40963876       1.26107663       0.73052754        1 
H       3.21997859       2.78791129      -0.14222059        1 
H       3.34581746       1.25174375      -1.01875593        1 
H      -3.34068414       1.22475528       1.03509568        1 
H      -3.38613900       1.16411162      -0.71564218        1 
H      -3.24624577       2.72625740       0.09785841        1 
