30
Lattice="0.0 0.0 0.0 0.0 0.0 0.0 0.0 0.0 0.0" Properties=species:S:1:pos:R:3:Z:I:1 pbc="F F F"
C       0.12138804      -0.71473601      -0.06420609        6 
C      -1.00788784       0.12847031      -0.01685817        6 
C       1.49281072      -0.16599904      -0.35016471        6 
C      -0.85086355       1.61355051      -0.05585712        6 
O       2.31396485      -0.31947463       0.70432498        8 
O       1.83801190       0.28252999      -1.41565100        8 
O       0.34406541       2.00428826       0.43765009        8 
O      -1.69108540       2.39883331      -0.42917462        8 
C       0.63556861       3.40904861       0.35513637        6 
C       3.67268498       0.11143943       0.50850687        6 
C      -0.00835181      -2.10955387       0.01291427        6 
C      -1.29242867      -2.63564088       0.15907902        6 
C      -2.40745032      -1.81204791       0.21539661        6 
C      -2.30157450      -0.42261558       0.12306608        6 
H       0.65031174       3.73057473      -0.68731570        1 
H       4.13084898      -0.43322367      -0.31864680        1 
H      -3.39036411      -2.25554267       0.33202001        1 
H      -0.11082589       3.98625814       0.90228639        1 
H       1.61828959       3.52673380       0.80642278        1 
H       4.18367875      -0.10678980       1.44355009        1 
H       3.70410055       1.18079556       0.29386165        1 
H      -1.41928105      -3.71145715       0.22237730        1 
C      -3.56577365       0.40032834       0.19292945        6 
C       1.18162283      -3.03670725      -0.07110850        6 
H       1.80729900      -2.81317096      -0.94000469        1 
H       0.85172171      -4.07328710      -0.15744088        1 
H       1.81180436      -2.95077925       0.81738630        1 
H      -3.77305267       0.89008374      -0.76026446        1 
H      -3.49789669       1.19586404       0.93750405        1 
H      -4.41106584      -0.24224650       0.44733630        1 
