30
Lattice="0.0 0.0 0.0 0.0 0.0 0.0 0.0 0.0 0.0" Properties=species:S:1:pos:R:3:Z:I:1 pbc="F F F"
C       0.95992109      -0.06750754       0.00061224        6 
C      -0.10114238       0.83949185       0.10611362        6 
C       0.66964386      -1.52411448      -0.21810028        6 
C      -1.50758964       0.34470184       0.31569379        6 
O      -0.04115002      -2.05706889       0.79209486        8 
O       0.99390706      -2.13978069      -1.20540254        8 
O      -2.11372720       0.08094949      -0.86058007        8 
O      -2.02273663       0.17073570       1.39023852        8 
C      -3.45297963      -0.44759292      -0.77829818        6 
C      -0.46706796      -3.42308927       0.62359682        6 
C       2.28734320       0.38443697      -0.07972951        6 
C       2.50600443       1.76024866      -0.02035504        6 
C       1.44795864       2.66148710       0.07101323        6 
C       0.12686482       2.22250656       0.13865276        6 
H      -3.46218385      -1.36321413      -0.18534647        1 
H      -1.07996508      -3.52166258      -0.27399328        1 
H       1.65390023       3.72625609       0.09703462        1 
H      -4.12277948       0.28269104      -0.32156179        1 
H      -3.74728629      -0.64919966      -1.80561794        1 
H      -1.04630825      -3.65419294       1.51440712        1 
H       0.39631148      -4.08480131       0.54131492        1 
H       3.52344267       2.13407904      -0.05963918        1 
C      -1.02619953       3.19112647       0.24624827        6 
C       3.44088080      -0.57725547      -0.22958111        6 
H       3.38300718      -1.39442726       0.49520392        1 
H       4.39192789      -0.06300295      -0.08240731        1 
H       3.44078428      -1.03269179      -1.22282637        1 
H      -1.58528386       3.03905321       1.17411068        1 
H      -1.72778523       3.06042422      -0.58333542        1 
H      -0.67285152       4.22302465       0.22813489        1 
