30
Lattice="0.0 0.0 0.0 0.0 0.0 0.0 0.0 0.0 0.0" Properties=species:S:1:pos:R:3:Z:I:1 pbc="F F F"
C       0.71776687       0.38922431      -0.11339517        6 
C      -0.69103027       0.38846910      -0.07222696        6 
C       1.48376080      -0.89993773      -0.25951125        6 
C      -1.49852269      -0.86044733      -0.31715454        6 
O       2.39136300      -1.02175834       0.74233650        8 
O       1.31264455      -1.75344146      -1.08908078        8 
O      -2.32051302      -1.10615147       0.73419533        8 
O      -1.42715710      -1.57988879      -1.27677966        8 
C      -3.18049310      -2.25320932       0.60116128        6 
C       3.18598074      -2.22147296       0.72071932        6 
C       1.43455121       1.59566901      -0.00381780        6 
C       0.71051192       2.77815229       0.14567731        6 
C      -0.67662858       2.77588612       0.19930545        6 
C      -1.40443613       1.59180419       0.08844864        6 
H      -3.85094722      -2.13087257      -0.25158832        1 
H       2.54715642      -3.10378754       0.78321229        1 
H      -1.20966094       3.71456728       0.30709931        1 
H      -2.59037972      -3.16030002       0.46282932        1 
H      -3.74646918      -2.29974363       1.52904454        1 
H       3.83476083      -2.15434823       1.59126114        1 
H       3.77602365      -2.27426795      -0.19607646        1 
H       1.24604142       3.71924194       0.21013877        1 
C      -2.91617421       1.64542794       0.09996401        6 
C       2.94248213       1.65745999      -0.08261004        6 
H       3.40147990       1.32737902       0.85156550        1 
H       3.26616424       2.68017567      -0.28374237        1 
H       3.33365538       1.01946485      -0.87877649        1 
H      -3.32057835       1.27517715       1.04471168        1 
H      -3.35037684       1.03704179      -0.69765518        1 
H      -3.25786543       2.67226398      -0.04108908        1 
