30
Lattice="0.0 0.0 0.0 0.0 0.0 0.0 0.0 0.0 0.0" Properties=species:S:1:pos:R:3:Z:I:1 pbc="F F F"
C       0.57886382       0.38045832       0.12457043        6 
C      -0.80037254       0.38632235      -0.19898561        6 
C       1.36426999      -0.89283002      -0.08926178        6 
C      -1.64702718      -0.85914123      -0.17083271        6 
O       2.51817399      -0.61839292      -0.74600548        8 
O       1.04334107      -2.02232422       0.18445762        8 
O      -1.45235558      -1.54289585       0.96636391        8 
O      -2.54835446      -1.10333453      -0.94135858        8 
C      -2.20136069      -2.76026484       1.11532321        6 
C       3.34494432      -1.75345162      -1.05745072        6 
C       1.24976511       1.57828871       0.42607195        6 
C       0.52078052       2.76742472       0.35531988        6 
C      -0.80569338       2.78166066      -0.04687787        6 
C      -1.50197356       1.60117858      -0.32028127        6 
H      -3.27381170      -2.56257519       1.07573547        1 
H       3.62925857      -2.28338274      -0.14698371        1 
H      -1.33153214       3.72769429      -0.11931097        1 
H      -1.93205711      -3.46416832       0.32623661        1 
H      -1.91556180      -3.15498690       2.08745077        1 
H       4.22148964      -1.34314354      -1.55433251        1 
H       2.81519282      -2.44036010      -1.71934149        1 
H       1.01095388       3.70140089       0.60877928        1 
C      -2.96760209       1.68254755      -0.68175620        6 
C       2.69814441       1.64112649       0.85432359        6 
H       2.99334230       0.76635423       1.43498943        1 
H       2.86104219       2.52769684       1.47107130        1 
H       3.36339403       1.69718241      -0.01012967        1 
H      -3.58969088       1.10953413       0.01071571        1 
H      -3.15618330       1.27483696      -1.67568477        1 
H      -3.29880538       2.72207476      -0.65689082        1 
