30
Lattice="0.0 0.0 0.0 0.0 0.0 0.0 0.0 0.0 0.0" Properties=species:S:1:pos:R:3:Z:I:1 pbc="F F F"
C       0.61297979       0.46696994       0.14934666        6 
C      -0.76622768       0.44561542      -0.10387179        6 
C       1.38415927      -0.82493459       0.16342128        6 
C      -1.52246387      -0.84699188      -0.25081698        6 
O       2.28412425      -0.84500604      -0.84405960        8 
O       1.23613199      -1.73956098       0.93506726        8 
O      -1.63432398      -1.49033305       0.91859641        8 
O      -2.04702943      -1.21460243      -1.27656867        8 
C      -2.32110847      -2.75606189       0.88790027        6 
C       3.08868348      -2.03543201      -0.94785174        6 
C       1.29408727       1.68363033       0.31478728        6 
C       0.54851855       2.85987578       0.23699409        6 
C      -0.81631626       2.83774122      -0.03186050        6 
C      -1.50173800       1.63680421      -0.21157909        6 
H      -3.34718967      -2.62688268       0.54013178        1 
H       3.68229896      -2.17549895      -0.04284687        1 
H      -1.36454286       3.77170002      -0.09580021        1 
H      -1.79991144      -3.45085299       0.22782452        1 
H      -2.30130117      -3.11723565       1.91321995        1 
H       3.73232441      -1.87394166      -1.80945891        1 
H       2.45488010      -2.91031500      -1.09997430        1 
H       1.04785677       3.81149091       0.38512978        1 
C      -2.98491863       1.62815814      -0.49898922        6 
C       2.77898857       1.73431679       0.58281582        6 
H       3.08413805       0.97771840       1.31059170        1 
H       3.06361189       2.71150802       0.97671567        1 
H       3.34817645       1.55442428      -0.33284658        1 
H      -3.52860758       1.00155924       0.21468676        1 
H      -3.18966614       1.22930976      -1.49527770        1 
H      -3.39303584       2.63801518      -0.43782515        1 
