30
Lattice="0.0 0.0 0.0 0.0 0.0 0.0 0.0 0.0 0.0" Properties=species:S:1:pos:R:3:Z:I:1 pbc="F F F"
C       0.70869444       0.36017158       0.06411433        6 
C      -0.71020925       0.35553335      -0.11083521        6 
C       1.45744696      -0.86896519      -0.39221582        6 
C      -1.40771684      -0.93619309       0.24539535        6 
O       2.64119867      -1.03276140       0.23766668        8 
O       1.03385146      -1.66202298      -1.19496539        8 
O      -2.74077942      -0.90756823       0.01805171        8 
O      -0.85940633      -1.92552548       0.66635600        8 
C      -3.45198440      -2.11804058       0.32905638        6 
C       3.37004019      -2.22190068      -0.11705561        6 
C       1.40820082       1.56957064       0.21079270        6 
C       0.66954615       2.76064200       0.16898501        6 
C      -0.68903179       2.76040473      -0.07410940        6 
C      -1.42091625       1.56926984      -0.19180662        6 
H      -3.06694459      -2.94890370      -0.26380458        1 
H       2.78138635      -3.10907062       0.12143738        1 
H      -1.21656709       3.70542497      -0.14606663        1 
H      -3.35276828      -2.35990794       1.38845645        1 
H      -4.49094771      -1.91420405       0.07745315        1 
H       4.28057037      -2.19173217       0.47759586        1 
H       3.60506974      -2.22555291      -1.18266695        1 
H       1.18977253       3.70498933       0.28804625        1 
C      -2.91705081       1.70786590      -0.37876783        6 
C       2.90845962       1.67944009       0.36862295        6 
H       3.25747686       1.14614718       1.25309694        1 
H       3.19317952       2.72944419       0.45629921        1 
H       3.43944682       1.25421442      -0.48564667        1 
H      -3.46708977       1.38030016       0.50564401        1 
H      -3.28024292       1.10922920      -1.21343655        1 
H      -3.16174666       2.75535752      -0.56547550        1 
