30
Lattice="0.0 0.0 0.0 0.0 0.0 0.0 0.0 0.0 0.0" Properties=species:S:1:pos:R:3:Z:I:1 pbc="F F F"
C       0.66842036       0.49064548      -0.15752649        6 
C      -0.72975079       0.44166775      -0.07454796        6 
C       1.42059036      -0.80116451      -0.29818114        6 
C      -1.48274779      -0.83294926      -0.35576770        6 
O       2.31147676      -0.95658706       0.70638473        8 
O       1.25385685      -1.62241906      -1.16525843        8 
O      -1.84055093      -1.45200214       0.79048719        8 
O      -1.73172897      -1.25648872      -1.45316156        8 
C      -2.56579430      -2.68933269       0.63421271        6 
C       3.08873855      -2.16900960       0.67224394        6 
C       1.34970734       1.71422614      -0.03942457        6 
C       0.58584872       2.86561787       0.15260678        6 
C      -0.80045414       2.81049365       0.25981728        6 
C      -1.48642044       1.60235871       0.14436230        6 
H      -3.51091984      -2.51415698       0.11730134        1 
H       2.43533861      -3.04111024       0.72486260        1 
H      -1.36182085       3.72503288       0.42031836        1 
H      -1.97251670      -3.40560320       0.06427188        1 
H      -2.74248225      -3.05010126       1.64492271        1 
H       3.73613645      -2.12105700       1.54484181        1 
H       3.67865507      -2.21964688      -0.24441025        1 
H       1.08712583       3.82477362       0.22463031        1 
C      -2.99316425       1.54379911       0.23212208        6 
C       2.85339220       1.80601117      -0.13620345        6 
H       3.32750062       1.45672386       0.78413541        1 
H       3.16191356       2.83779252      -0.31277604        1 
H       3.24288322       1.19354067      -0.95333828        1 
H      -3.31608695       0.94452014       1.08838957        1 
H      -3.42429933       1.08992510      -0.66529024        1 
H      -3.41583276       2.54369296       0.33986539        1 
