30
Lattice="0.0 0.0 0.0 0.0 0.0 0.0 0.0 0.0 0.0" Properties=species:S:1:pos:R:3:Z:I:1 pbc="F F F"
C       0.38210832      -0.65009229      -0.06369475        6 
C      -0.95039914      -0.19791121      -0.03341526        6 
C       1.46393739       0.35518450      -0.31441216        6 
C      -1.26224735       1.26382778      -0.16127689        6 
O       2.51915719       0.18490976       0.50505549        8 
O       1.40902452       1.22296788      -1.15386690        8 
O      -0.62597259       1.98558489       0.78332890        8 
O      -2.01543651       1.73673079      -0.97563792        8 
C      -0.75315645       3.41481991       0.66655254        6 
C       3.62030089       1.09043439       0.30776026        6 
C       0.67419491      -2.02413074       0.03009388        6 
C      -0.39989284      -2.90448848       0.17581819        6 
C      -1.71202997      -2.45375923       0.22490675        6 
C      -2.02025924      -1.09739729       0.11067328        6 
H      -0.30467597       3.74869809      -0.27055362        1 
H       4.01118826       1.00017326      -0.70696837        1 
H      -2.51797632      -3.17026107       0.34420115        1 
H      -1.80272249       3.71052054       0.69330192        1 
H      -0.21596487       3.82423388       1.51915846        1 
H       4.37076823       0.79566866       1.03770217        1 
H       3.29994352       2.11920565       0.47774863        1 
H      -0.20151016      -3.96888930       0.24361218        1 
C      -3.46166964      -0.64756493       0.14689461        6 
C       2.07424299      -2.58629284      -0.05443801        6 
H       2.63517060      -2.15943410      -0.88896798        1 
H       2.03515584      -3.66809244      -0.19503033        1 
H       2.64182295      -2.37766850       0.85492602        1 
H      -3.77592456      -0.26223190      -0.82529166        1 
H      -3.61996804       0.15424556       0.87274237        1 
H      -4.11193079      -1.48115733       0.41848098        1 
