30
Lattice="0.0 0.0 0.0 0.0 0.0 0.0 0.0 0.0 0.0" Properties=species:S:1:pos:R:3:Z:I:1 pbc="F F F"
C       0.73048005       0.39727953       0.10915806        6 
C      -0.68336671       0.39350064      -0.02413268        6 
C       1.40022110      -0.93510805      -0.09417201        6 
C      -1.47221525      -0.82080915       0.40321320        6 
O       2.74805977      -0.86333300      -0.15180251        8 
O       0.81875499      -1.98912237      -0.20453648        8 
O      -2.39741033      -1.17584927      -0.51148611        8 
O      -1.29596101      -1.40788708       1.43947169        8 
C      -3.18437861      -2.33660393      -0.18592895        6 
C       3.42678647      -2.11510554      -0.35884536        6 
C       1.43324913       1.62046387       0.12293046        6 
C       0.68924889       2.79899936      -0.01420634        6 
C      -0.68261275       2.78465932      -0.19596910        6 
C      -1.40395043       1.58715027      -0.17790435        6 
H      -2.53739894      -3.20547077      -0.05837000        1 
H       3.21591208      -2.80233893       0.46167110        1 
H      -1.21655240       3.72153544      -0.31569464        1 
H      -3.75117105      -2.17149840       0.73216146        1 
H      -3.85595601      -2.47660405      -1.03030818        1 
H       4.48530701      -1.86566045      -0.39089147        1 
H       3.10858250      -2.57151282      -1.29714126        1 
H       1.21124751       3.74932919       0.00779382        1 
C      -2.91388682       1.63413069      -0.26814670        6 
C       2.92989249       1.76491333       0.27867921        6 
H       3.31352764       1.16302311       1.10209719        1 
H       3.17518631       2.81185670       0.46664872        1 
H       3.45916285       1.44244929      -0.62015783        1 
H      -3.38495361       1.12689861       0.57834670        1 
H      -3.27512600       1.14428065      -1.17402300        1 
H      -3.25819504       2.66959321      -0.27054459        1 
