30
Lattice="0.0 0.0 0.0 0.0 0.0 0.0 0.0 0.0 0.0" Properties=species:S:1:pos:R:3:Z:I:1 pbc="F F F"
C       0.00376275      -0.74438967      -0.09222609        6 
C      -0.95139116       0.27562310       0.07393279        6 
C       1.47561519      -0.46135322      -0.23627266        6 
C      -0.57125101       1.70546200      -0.14431806        6 
O       2.07308140      -0.42180837       0.96751801        8 
O       2.07043141      -0.42079832      -1.28582782        8 
O       0.68260185       1.97662170       0.27260282        8 
O      -1.27477053       2.52925177      -0.68096080        8 
C       1.19464961       3.27757368      -0.06716962        6 
C       3.49555303      -0.20816234       0.95384409        6 
C      -0.36976670      -2.09780469      -0.09020548        6 
C      -1.71577812      -2.40007898       0.11012228        6 
C      -2.65937164      -1.39935953       0.30611373        6 
C      -2.31208679      -0.04928122       0.27151507        6 
H       1.21100646       3.40465987      -1.15056355        1 
H       3.99781053      -1.00170892       0.39820083        1 
H      -3.69556772      -1.67107863       0.47652621        1 
H       0.57973852       4.05903307       0.38065279        1 
H       2.20399635       3.30421886       0.33734453        1 
H       3.79952907      -0.21615149       1.99802491        1 
H       3.72797698       0.75347976       0.49316731        1 
H      -2.02906905      -3.43896796       0.12013333        1 
C      -3.39594530       0.98633730       0.45323430        6 
C       0.64072216      -3.20066219      -0.29663077        6 
H       1.13435572      -3.10850562      -1.26745602        1 
H       0.15709773      -4.17783881      -0.25264055        1 
H       1.42055439      -3.17778055       0.47078048        1 
H      -3.63400143       1.47545919      -0.49340052        1 
H      -3.09882132       1.77518824       1.14681271        1 
H      -4.30094867       0.51240717       0.83889429        1 
