30
Lattice="0.0 0.0 0.0 0.0 0.0 0.0 0.0 0.0 0.0" Properties=species:S:1:pos:R:3:Z:I:1 pbc="F F F"
C      -0.34535807      -0.71359049       0.12254170        6 
C      -0.74676628       0.63389867       0.00169476        6 
C       1.09903661      -1.12493225       0.21650436        6 
C       0.25890026       1.73804784       0.02883589        6 
O       1.71045296      -1.00584870      -0.97998947        8 
O       1.62302917      -1.58645961       1.19847140        8 
O       1.40776211       1.35911810       0.62737081        8 
O       0.08290049       2.86187404      -0.38357479        8 
C       2.46027720       2.33501976       0.67217328        6 
C       3.10266085      -1.36834599      -1.00925569        6 
C      -1.28290625      -1.75753505       0.12842536        6 
C      -2.63174382      -1.42034862       0.01976359        6 
C      -3.03673780      -0.09794844      -0.09000497        6 
C      -2.12040868       0.95538763      -0.10559552        6 
H       2.73801363       2.64260912      -0.33736787        1 
H       3.67059664      -0.73636988      -0.32443983        1 
H      -4.09467559       0.12810507      -0.16560315        1 
H       2.14238351       3.21044344       1.24001843        1 
H       3.29070464       1.83823519       1.16912828        1 
H       3.42274892      -1.20636013      -2.03609557        1 
H       3.23332454      -2.41337035      -0.72462960        1 
H      -3.37653903      -2.20966036       0.01938066        1 
C      -2.65309204       2.36339406      -0.22219125        6 
C      -0.87038122      -3.20692224       0.24138109        6 
H      -0.12058299      -3.47280249      -0.50943185        1 
H      -1.73235947      -3.86076919       0.09862727        1 
H      -0.43541982      -3.41895328       1.22095525        1 
H      -2.35858531       2.82294320      -1.16706931        1 
H      -2.26927420       3.01271625       0.56669859        1 
H      -3.74324103       2.35063046      -0.16245281        1 
