30
Lattice="0.0 0.0 0.0 0.0 0.0 0.0 0.0 0.0 0.0" Properties=species:S:1:pos:R:3:Z:I:1 pbc="F F F"
C       0.94371516       0.13025851      -0.17117810        6 
C      -0.40364902       0.52906319       0.08918830        6 
C       1.36419347      -1.29449814       0.08486044        6 
C      -1.46718416      -0.42016776      -0.40654102        6 
O       0.49397844      -1.92601805       0.90246433        8 
O       2.45551772      -1.75903098      -0.15815688        8 
O      -2.72654711       0.00074345      -0.15074370        8 
O      -1.25412179      -1.46371282      -0.97721253        8 
C      -3.78061236      -0.85481538      -0.62455338        6 
C       0.80036314      -3.29052618       1.22031024        6 
C       1.96953682       1.08351877      -0.27292811        6 
C       1.63328186       2.42287699      -0.02781186        6 
C       0.35901439       2.79123354       0.35549999        6 
C      -0.69980616       1.87111755       0.39376001        6 
H      -3.71260203      -0.98618306      -1.70543631        1 
H       0.82197071      -3.89511503       0.31152989        1 
H       0.15511609       3.83004939       0.59181801        1 
H      -3.72453626      -1.83222735      -0.14287324        1 
H      -4.70528616      -0.34771490      -0.35613845        1 
H      -0.00383962      -3.62136051       1.87437809        1 
H       1.76385129      -3.36615641       1.72709252        1 
H       2.40775238       3.17864129      -0.10187448        1 
C      -2.06865668       2.41674608       0.73907922        6 
C       3.40847961       0.75767538      -0.59453515        6 
H       3.88116573       0.18619234       0.20762298        1 
H       3.96736323       1.68413269      -0.74068929        1 
H       3.49177487       0.14554637      -1.49250145        1 
H      -2.58180431       1.79751454       1.47379801        1 
H      -2.71653639       2.46564368      -0.13880083        1 
H      -1.96335821       3.42566362       1.14288802        1 
