30
Lattice="0.0 0.0 0.0 0.0 0.0 0.0 0.0 0.0 0.0" Properties=species:S:1:pos:R:3:Z:I:1 pbc="F F F"
C       0.69343282       0.45226251      -0.07389151        6 
C      -0.69673186       0.45774114       0.11907263        6 
C       1.35629078      -0.88838906      -0.15114087        6 
C      -1.43243908      -0.84108113       0.31769343        6 
O       2.51403643      -0.94041688       0.53335556        8 
O       0.89666950      -1.83703997      -0.74450414        8 
O      -2.16504444      -1.16009876      -0.76095658        8 
O      -1.41879004      -1.47848096       1.34275164        8 
C      -2.88797132      -2.40364238      -0.68500040        6 
C       3.18544999      -2.21502347       0.52986186        6 
C       1.39819023       1.65952171      -0.22576625        6 
C       0.66240868       2.84516399      -0.16716157        6 
C      -0.71176299       2.84461190       0.04732522        6 
C      -1.42282091       1.65277622       0.18895584        6 
H      -2.19030059      -3.23175528      -0.55395162        1 
H       2.54596071      -2.97922563       0.97353806        1 
H      -1.24587134       3.78774643       0.09717731        1 
H      -3.59412307      -2.38719084       0.14690506        1 
H      -3.41263312      -2.49045806      -1.63376490        1 
H       4.08236345      -2.06962364       1.12766881        1 
H       3.44284621      -2.50838080      -0.48898786        1 
H       1.17997731       3.78994707      -0.29390627        1 
C      -2.91730366       1.65384055       0.40761944        6 
C       2.88617399       1.71451358      -0.47727000        6 
H       3.44740602       1.46457905       0.42555872        1 
H       3.17698484       2.71554007      -0.80071869        1 
H       3.19277418       1.00631566      -1.25059211        1 
H      -3.19372812       1.05544140       1.28056944        1 
H      -3.43985933       1.23204003      -0.45535721        1 
H      -3.28553628       2.66870019       0.56620900        1 
