30
Lattice="0.0 0.0 0.0 0.0 0.0 0.0 0.0 0.0 0.0" Properties=species:S:1:pos:R:3:Z:I:1 pbc="F F F"
C       0.91031804      -0.32304829      -0.07905518        6 
C       0.04228813       0.76680123       0.13400670        6 
C       0.44443068      -1.72561156       0.17770569        6 
C      -1.45545295       0.61465024       0.19478008        6 
O      -0.86791623      -1.90802174      -0.07433471        8 
O       1.14218750      -2.60344955       0.63123269        8 
O      -1.95835894       0.40837748      -1.03746248        8 
O      -2.13740272       0.83350672       1.16669974        8 
C      -3.38738329       0.27773911      -1.11939963        6 
C      -1.41910904      -3.18247116       0.30141015        6 
C       2.28350414      -0.10201305      -0.31616118        6 
C       2.73372105       1.21866562      -0.33294261        6 
C       1.87997464       2.28493136      -0.07983082        6 
C       0.51859970       2.08578436       0.15024064        6 
H      -3.72050839      -0.58624727      -0.54126695        1 
H      -0.92542086      -3.98818900      -0.24336147        1 
H       2.27239105       3.29628284      -0.07981963        1 
H      -3.88104795       1.17372073      -0.73983002        1 
H      -3.60518568       0.13619825      -2.17570242        1 
H      -2.47243866      -3.12943178       0.03458631        1 
H      -1.30255892      -3.34616077       1.37367917        1 
H       3.78127280       1.41173242      -0.53684315        1 
C      -0.40523402       3.25888960       0.37818361        6 
C       3.27368448      -1.21584467      -0.55996758        6 
H       3.53878190      -1.71656600       0.37343320        1 
H       4.18232684      -0.81228397      -1.01120740        1 
H       2.87219537      -1.98595594      -1.22073853        1 
H      -0.87793953       3.20593648       1.36113035        1 
H      -1.20923350       3.28278203      -0.36414796        1 
H       0.14374195       4.19891347       0.30715062        1 
