30
Lattice="0.0 0.0 0.0 0.0 0.0 0.0 0.0 0.0 0.0" Properties=species:S:1:pos:R:3:Z:I:1 pbc="F F F"
C      -0.54116311      -0.69302220      -0.05632574        6 
C      -0.60059178       0.70601469       0.03003006        6 
C       0.78130207      -1.38843102      -0.19418073        6 
C       0.66601679       1.49574317       0.15944103        6 
O       1.53753433      -1.21942656       0.90967312        8 
O       1.13820103      -2.00760626      -1.16509915        8 
O       1.48597350       1.27054030      -0.88748440        8 
O       0.94304917       2.21497650       1.08734326        8 
C       2.78216259       1.89280868      -0.82613169        6 
C       2.85732392      -1.79346348       0.86498830        6 
C      -1.71374255      -1.46549614      -0.10191650        6 
C      -2.93395306      -0.79352086      -0.03898865        6 
C      -2.99421549       0.59310152       0.04844450        6 
C      -1.83753090       1.37084616       0.09499324        6 
H       2.68365780       2.97899833      -0.80027242        1 
H       2.79851222      -2.87592290       0.74186598        1 
H      -3.96152153       1.08250229       0.08513473        1 
H       3.31997837       1.56016115       0.06326224        1 
H       3.29660624       1.57538403      -1.73021896        1 
H       3.31472776      -1.53965193       1.81842342        1 
H       3.42693246      -1.36928261       0.03651258        1 
H      -3.85423153      -1.36786693      -0.06297486        1 
C      -1.93341783       2.87239788       0.21093578        6 
C      -1.67813545      -2.97175027      -0.21557472        6 
H      -1.29981436      -3.28401017      -1.19195944        1 
H      -2.67897280      -3.38665462      -0.08459018        1 
H      -1.02827952      -3.42088501       0.54089993        1 
H      -1.31265052       3.37655915      -0.53437764        1 
H      -1.59496110       3.21128520       1.19282764        1 
H      -2.96446812       3.20103931       0.06818681        1 
