30
Lattice="0.0 0.0 0.0 0.0 0.0 0.0 0.0 0.0 0.0" Properties=species:S:1:pos:R:3:Z:I:1 pbc="F F F"
C       0.73287504       0.47102041      -0.10996451        6 
C      -0.66659557       0.44923656       0.03904692        6 
C       1.49318101      -0.81047681      -0.33691734        6 
C      -1.31406332      -0.90037719       0.06912264        6 
O       2.10393058      -1.22700522       0.78297817        8 
O       1.59538174      -1.34942988      -1.41169879        8 
O      -2.58889865      -0.89154909      -0.36668473        8 
O      -0.75448977      -1.91592455       0.41720133        8 
C      -3.25946905      -2.16577902      -0.37901718        6 
C       2.76411321      -2.50410364       0.69436716        6 
C       1.44839265       1.67227485      -0.14283419        6 
C       0.72638914       2.85674930       0.00311378        6 
C      -0.65195101       2.84382444       0.17881436        6 
C      -1.38426460       1.65425099       0.19598264        6 
H      -2.74065080      -2.86062293      -1.04058011        1 
H       2.03276399      -3.27687131       0.45318873        1 
H      -1.17920425       3.78278976       0.30804972        1 
H      -3.29801053      -2.58738039       0.62652606        1 
H      -4.26170497      -1.95886193      -0.74788882        1 
H       3.19375581      -2.67631170       1.67861417        1 
H       3.54274042      -2.48472038      -0.06976457        1 
H       1.25368974       3.80463105      -0.01666172        1 
C      -2.87971571       1.73409315       0.40704702        6 
C       2.94494397       1.68488623      -0.33832147        6 
H       3.45225682       1.16479451       0.47879768        1 
H       3.32240442       2.70755695      -0.37881712        1 
H       3.22441688       1.18220803      -1.26875418        1 
H      -3.22147928       1.05228197       1.18818427        1 
H      -3.42403214       1.46986453      -0.50168215        1 
H      -3.15855655       2.74947386       0.69464765        1 
