30
Lattice="0.0 0.0 0.0 0.0 0.0 0.0 0.0 0.0 0.0" Properties=species:S:1:pos:R:3:Z:I:1 pbc="F F F"
C       0.76662748       0.46068607       0.11272221        6 
C      -0.62740648       0.53693166       0.16513648        6 
C       1.45081195      -0.85012448       0.38827910        6 
C      -1.43639693      -0.71364261       0.37074956        6 
O       1.70277374      -1.51889789      -0.75761137        8 
O       1.71729899      -1.27245228       1.48357564        8 
O      -2.02607334      -1.09408948      -0.78337443        8 
O      -1.56996270      -1.30197344       1.41387067        8 
C      -2.86715782      -2.26187602      -0.70944801        6 
C       2.32639402      -2.81091694      -0.60943722        6 
C       1.54414939       1.60301897      -0.12140357        6 
C       0.87726066       2.81608816      -0.28988040        6 
C      -0.51219529       2.89327231      -0.23052593        6 
C      -1.29349793       1.75846987      -0.01679295        6 
H      -2.29067004      -3.12802450      -0.38160976        1 
H       3.29735375      -2.71243375      -0.12190826        1 
H      -0.99902256       3.85419294      -0.35779031        1 
H      -3.69095948      -2.09536503      -0.01334848        1 
H      -3.24214174      -2.41089587      -1.71954865        1 
H       2.44096332      -3.19323152      -1.62122458        1 
H       1.69217420      -3.47135048      -0.01615112        1 
H       1.45476548       3.71749191      -0.46540714        1 
C      -2.80122564       1.83839424       0.01849869        6 
C       3.04848508       1.50958972      -0.18272147        6 
H       3.45668268       1.10024532       0.74603019        1 
H       3.49532141       2.49154878      -0.34463281        1 
H       3.36764026       0.85399659      -0.99862658        1 
H      -3.20717219       1.32856072       0.89694390        1 
H      -3.23970629       1.36575595      -0.86523714        1 
H      -3.13480324       2.87690234       0.04878019        1 
