30
Lattice="0.0 0.0 0.0 0.0 0.0 0.0 0.0 0.0 0.0" Properties=species:S:1:pos:R:3:Z:I:1 pbc="F F F"
C      -0.29604392      -0.71497634       0.11873214        6 
C      -0.78090394       0.60667333       0.01379640        6 
C       1.16821947      -1.04882280       0.22946977        6 
C       0.15098887       1.77401444       0.04763802        6 
O       1.76459130      -0.98683437      -0.97856066        8 
O       1.71771604      -1.41758253       1.23607624        8 
O       1.36688071       1.43942458       0.52737302        8 
O      -0.12672922       2.90736873      -0.27323286        8 
C       2.34889368       2.48537200       0.58007858        6 
C       3.16833388      -1.30177842      -1.00028435        6 
C      -1.16629919      -1.81591972       0.11013155        6 
C      -2.53317859      -1.56502419      -0.00119813        6 
C      -3.02060757      -0.26995956      -0.09752475        6 
C      -2.17366144       0.84001026      -0.09413545        6 
H       2.56634682       2.85444401      -0.42378660        1 
H       3.72368484      -0.58853736      -0.38868054        1 
H      -4.09029411      -0.11118830      -0.17765237        1 
H       1.99263132       3.31107800       1.19717330        1 
H       3.23055629       2.02822765       1.02389124        1 
H       3.46662865      -1.22593969      -2.04350961        1 
H       3.34176273      -2.30987900      -0.62096407        1 
H      -3.22654970      -2.39971698      -0.01373774        1 
C      -2.80233982       2.20962331      -0.19330903        6 
C      -0.66077232      -3.23592034       0.21633745        6 
H       0.10903465      -3.44661026      -0.53159646        1 
H      -1.47691451      -3.94412749       0.06361813        1 
H      -0.22071106      -3.42691049       1.19825316        1 
H      -2.50970249       2.71897068      -1.11260931        1 
H      -2.49381146       2.86000283       0.62725829        1 
H      -3.88994391       2.11555045      -0.17312159        1 
