30
Lattice="0.0 0.0 0.0 0.0 0.0 0.0 0.0 0.0 0.0" Properties=species:S:1:pos:R:3:Z:I:1 pbc="F F F"
C       0.83701006       0.38341588       0.10241460        6 
C      -0.56417979       0.53681844       0.03021647        6 
C       1.47161834      -0.97810109       0.22329639        6 
C      -1.37799699      -0.70634611       0.21854935        6 
O       1.37511291      -1.65402067      -0.93845348        8 
O       2.08165645      -1.36497145       1.18772544        8 
O      -2.67702201      -0.56351028      -0.11295538        8 
O      -0.92950272      -1.76294006       0.60503513        8 
C      -3.49890909      -1.73517578       0.03835265        6 
C       1.82866651      -3.01948396      -0.90674400        6 
C       1.70540827       1.47715901       0.01434846        6 
C       1.13461431       2.74009539      -0.14208598        6 
C      -0.24232222       2.90488639      -0.20353948        6 
C      -1.12693333       1.82631386      -0.11542774        6 
H      -3.14735535      -2.53405606      -0.61628526        1 
H       2.87733540      -3.07360269      -0.61059268        1 
H      -0.64936320       3.90363031      -0.31554082        1 
H      -3.48143135      -2.08501050       1.07142728        1 
H      -4.50111220      -1.42083631      -0.24543645        1 
H       1.69558149      -3.39282329      -1.91989822        1 
H       1.21915718      -3.58935087      -0.20330432        1 
H       1.77977978       3.60893477      -0.21808769        1 
C      -2.60775249       2.13128348      -0.16214942        6 
C       3.20355888       1.30397249       0.07644945        6 
H       3.51741204       0.95177646       1.06182077        1 
H       3.70897172       2.24796587      -0.13329202        1 
H       3.54956687       0.56543528      -0.65244652        1 
H      -3.13165377       1.74254076       0.71282854        1 
H      -3.08468738       1.68473888      -1.03620028        1 
H      -2.75685456       3.21173611      -0.20019730        1 
