30
Lattice="0.0 0.0 0.0 0.0 0.0 0.0 0.0 0.0 0.0" Properties=species:S:1:pos:R:3:Z:I:1 pbc="F F F"
C       0.75190953       0.48824377      -0.09841380        6 
C      -0.62112619       0.48488857       0.16216943        6 
C       1.47372987      -0.82061426      -0.26173488        6 
C      -1.35322954      -0.82633633       0.23971415        6 
O       1.84066214      -1.32956377       0.92398733        8 
O       1.71002585      -1.34240140      -1.32545895        8 
O      -2.09710769      -1.02351956      -0.86649356        8 
O      -1.31168735      -1.60059377       1.16446026        8 
C      -2.86810160      -2.24054890      -0.90628926        6 
C       2.46804762      -2.62714309       0.89181004        6 
C       1.45953766       1.68957940      -0.23288970        6 
C       0.74547148       2.87833985      -0.08286654        6 
C      -0.62208910       2.87544816       0.18240135        6 
C      -1.33738447       1.68349720       0.29398595        6 
H      -2.21105847      -3.10872112      -0.84120841        1 
H       1.78439179      -3.36167500       0.46390245        1 
H      -1.14615432       3.81839316       0.29755745        1 
H      -3.58352557      -2.26591767      -0.08257284        1 
H      -3.38417725      -2.22235821      -1.86340077        1 
H       2.68437310      -2.86714243       1.92994623        1 
H       3.38402730      -2.59416013       0.30034339        1 
H       1.26953397       3.82373649      -0.17423412        1 
C      -2.82684155       1.68128912       0.54272910        6 
C       2.93733280       1.68446027      -0.53547988        6 
H       3.49327616       1.11805466       0.21785681        1 
H       3.33535564       2.69996567      -0.55538863        1 
H       3.13613046       1.21992669      -1.50547806        1 
H      -3.09762076       0.99672517       1.35180049        1 
H      -3.36980322       1.36145446      -0.35125555        1 
H      -3.17776274       2.67787893       0.81552467        1 
