30
Lattice="0.0 0.0 0.0 0.0 0.0 0.0 0.0 0.0 0.0" Properties=species:S:1:pos:R:3:Z:I:1 pbc="F F F"
C       0.63491691       0.56427756       0.16907141        6 
C      -0.75378472       0.42595937       0.10535853        6 
C       1.48344542      -0.65792475       0.37866349        6 
C      -1.40197605      -0.90489763       0.37589971        6 
O       2.11605417      -1.00261213      -0.76288779        8 
O       1.59855119      -1.26206714       1.41525747        8 
O      -1.61017112      -1.58960213      -0.76952806        8 
O      -1.69910571      -1.31762232       1.46689223        8 
C      -2.24219693      -2.87864588      -0.62742421        6 
C       2.96667574      -2.16368282      -0.68676294        6 
C       1.24317795       1.81660572      -0.00296285        6 
C       0.41162627       2.91472764      -0.22126314        6 
C      -0.97207529       2.77390667      -0.29519454        6 
C      -1.58340928       1.53138160      -0.13401634        6 
H      -1.64799272      -3.52428435       0.02054041        1 
H       3.75747299      -2.01033924       0.04916108        1 
H      -1.58890283       3.64799027      -0.47552767        1 
H      -3.24134115      -2.76650510      -0.20338791        1 
H      -2.29620671      -3.28543719      -1.63471650        1 
H       3.38515455      -2.27994876      -1.68386098        1 
H       2.38455426      -3.04351897      -0.40865454        1 
H       0.85370028       3.89792212      -0.34116672        1 
C      -3.08348834       1.37307211      -0.20224256        6 
C       2.74341229       1.96402932       0.04613088        6 
H       3.16571391       1.44623467       0.91191884        1 
H       3.03011973       3.01497444       0.10931160        1 
H       3.20663248       1.53709440      -0.84816972        1 
H      -3.48648904       1.00842313       0.74745708        1 
H      -3.36976240       0.65510132      -0.97662063        1 
H      -3.56651263       2.32457068      -0.42987508        1 
