30
Lattice="0.0 0.0 0.0 0.0 0.0 0.0 0.0 0.0 0.0" Properties=species:S:1:pos:R:3:Z:I:1 pbc="F F F"
C       0.69179091       0.46477903       0.08165933        6 
C      -0.71744876       0.43574062       0.03841472        6 
C       1.37079025      -0.87007831       0.06123833        6 
C      -1.49529201      -0.82557423       0.32963112        6 
O       2.68934403      -0.81053778      -0.21580516        8 
O       0.80602619      -1.92427529       0.25015804        8 
O      -1.94889133      -1.40008720      -0.79996737        8 
O      -1.73602491      -1.22130858       1.44103910        8 
C      -2.66265014      -2.63936118      -0.62550344        6 
C       3.37240395      -2.07633310      -0.27131241        6 
C       1.37100984       1.70380131       0.02082371        6 
C       0.59549547       2.85979067      -0.09995583        6 
C      -0.79016237       2.81507216      -0.17993679        6 
C      -1.47663762       1.60456908      -0.09869366        6 
H      -2.01950711      -3.37108866      -0.13483851        1 
H       3.28445801      -2.60050218       0.68127768        1 
H      -1.35086353       3.73780942      -0.28800821        1 
H      -3.56085387      -2.48442750      -0.02505466        1 
H      -2.92443403      -2.96683885      -1.62932075        1 
H       4.41112209      -1.83248941      -0.48344014        1 
H       2.95369825      -2.70019253      -1.06234289        1 
H       1.09570852       3.82108028      -0.13872833        1 
C      -2.98679594       1.56227737      -0.13414808        6 
C       2.87104177       1.86676760       0.09598255        6 
H       3.29695527       1.32035169       0.93837536        1 
H       3.12022544       2.92373224       0.20648250        1 
H       3.36053362       1.48822254      -0.80334632        1 
H      -3.39035099       1.12008631       0.78152393        1 
H      -3.34697762       0.96051015      -0.97279717        1 
H      -3.39934989       2.56720356      -0.23430115        1 
