30
Lattice="0.0 0.0 0.0 0.0 0.0 0.0 0.0 0.0 0.0" Properties=species:S:1:pos:R:3:Z:I:1 pbc="F F F"
C       0.90122585      -0.34095478      -0.07177871        6 
C       0.06047055       0.77009242       0.13426352        6 
C       0.40540557      -1.72947049       0.20868250        6 
C      -1.43970176       0.65198146       0.20253841        6 
O      -0.88623198      -1.91717488      -0.12890896        8 
O       1.06547291      -2.58767580       0.74748810        8 
O      -1.95331449       0.44141178      -1.02388812        8 
O      -2.11221963       0.89535653       1.17551399        8 
C      -3.38534865       0.34250462      -1.09800314        6 
C      -1.46759361      -3.17693215       0.25298712        6 
C       2.27813544      -0.15693058      -0.31339053        6 
C       2.76074356       1.15161367      -0.34741553        6 
C       1.93359298       2.24117887      -0.10314279        6 
C       0.56910312       2.07765183       0.13520859        6 
H      -3.73777264      -0.49530283      -0.49347664        1 
H      -0.95256215      -4.00105831      -0.24253303        1 
H       2.35023319       3.24268972      -0.11649223        1 
H      -3.85580631       1.26126277      -0.74411895        1 
H      -3.60985370       0.17541296      -2.14915039        1 
H      -2.50459286      -3.12426475      -0.07170440        1 
H      -1.40877439      -3.31181117       1.33383910        1 
H       3.81206055       1.31686552      -0.55660839        1 
C      -0.32617343       3.27451185       0.35322113        6 
C       3.23626558      -1.30128974      -0.54425578        6 
H       3.49647611      -1.79078242       0.39651535        1 
H       4.15138132      -0.93180574      -1.01106739        1 
H       2.80887590      -2.07202059      -1.18826055        1 
H      -0.80478799       3.23812142       1.33401879        1 
H      -1.12558456       3.31437028      -0.39345544        1 
H       0.24641942       4.20016811       0.27999803        1 
