30
Lattice="0.0 0.0 0.0 0.0 0.0 0.0 0.0 0.0 0.0" Properties=species:S:1:pos:R:3:Z:I:1 pbc="F F F"
C       0.71159307       0.39984377      -0.05792569        6 
C      -0.69623354       0.38644871      -0.12282744        6 
C       1.52880991      -0.83261606      -0.34524548        6 
C      -1.44152428      -0.92039300      -0.21216405        6 
O       2.30416792      -1.15801754       0.71741184        8 
O       1.48820769      -1.48027177      -1.35643762        8 
O      -2.39993488      -0.97579881       0.74737272        8 
O      -1.22765750      -1.83241909      -0.96720905        8 
C      -3.20782915      -2.16642740       0.75982770        6 
C       3.13207555      -2.32504800       0.54897266        6 
C       1.40827651       1.60884929       0.11812553        6 
C       0.66699446       2.78674911       0.20862361        6 
C      -0.71798993       2.77654185       0.11435033        6 
C      -1.42871835       1.58623748      -0.03894055        6 
H      -3.75136421      -2.27020139      -0.18117130        1 
H       2.51810261      -3.19610085       0.31595701        1 
H      -1.26371417       3.71317588       0.15633143        1 
H      -2.58647542      -3.05025461       0.91144265        1 
H      -3.89989191      -2.03659699       1.58912050        1 
H       3.64430993      -2.45616964       1.49957929        1 
H       3.85136612      -2.16933394      -0.25702811        1 
H       1.18763454       3.73072415       0.32855105        1 
C      -2.93689724       1.64285145      -0.14411676        6 
C       2.91745917       1.66385274       0.16853154        6 
H       3.29891783       1.22769354       1.09437128        1 
H       3.26247529       2.69690650       0.10495886        1 
H       3.36711943       1.10850217      -0.65945544        1 
H      -3.40982803       1.36826684       0.80127903        1 
H      -3.32122347       0.96179200      -0.90664979        1 
H      -3.25475030       2.65358244      -0.40707579        1 
