30
Lattice="0.0 0.0 0.0 0.0 0.0 0.0 0.0 0.0 0.0" Properties=species:S:1:pos:R:3:Z:I:1 pbc="F F F"
C       0.75160082       0.47019458       0.14132929        6 
C      -0.62465122       0.44386523      -0.12347329        6 
C       1.51611234      -0.81798496       0.28998954        6 
C      -1.31849457      -0.88776510      -0.12111531        6 
O       1.90397264      -1.28831775      -0.90320473        8 
O       1.80463957      -1.32354831       1.34860219        8 
O      -2.36850999      -0.89176574       0.72495256        8 
O      -0.99463108      -1.85010435      -0.77580871        8 
C      -3.12040503      -2.11892304       0.79393188        6 
C       2.56385838      -2.56903940      -0.89718476        6 
C       1.44911877       1.67984517       0.24398163        6 
C       0.72635975       2.85786009       0.05566704        6 
C      -0.63533227       2.83480126      -0.23100068        6 
C      -1.34543671       1.63621003      -0.30998927        6 
H      -3.52084957      -2.37672712      -0.18791714        1 
H       3.46154776      -2.53618375      -0.27837655        1 
H      -1.16164380       3.76976295      -0.39144941        1 
H      -2.48687354      -2.93274957       1.14909603        1 
H      -3.92515066      -1.92385098       1.49904770        1 
H       2.81549028      -2.76749949      -1.93627324        1 
H       1.88317523      -3.33196587      -0.51686003        1 
H       1.24175515       3.81003397       0.12361080        1 
C      -2.82694611       1.65334811      -0.60809996        6 
C       2.92839504       1.69891722       0.53901494        6 
H       3.14296069       1.22650116       1.50131156        1 
H       3.30683179       2.72163122       0.56670947        1 
H       3.48879997       1.15117455      -0.22490423        1 
H      -3.41324064       1.48999887       0.29953462        1 
H      -3.10859777       0.87304189      -1.31917303        1 
H      -3.11668515       2.61578531      -1.03410190        1 
