30
Lattice="0.0 0.0 0.0 0.0 0.0 0.0 0.0 0.0 0.0" Properties=species:S:1:pos:R:3:Z:I:1 pbc="F F F"
C       0.71518728       0.43509603      -0.01361627        6 
C      -0.69759082       0.42942855       0.00914339        6 
C       1.40489174      -0.87195572      -0.28651016        6 
C      -1.38405587      -0.88104984       0.27594237        6 
O       2.53029372      -1.03207096       0.43469610        8 
O       0.98438074      -1.70651655      -1.05151068        8 
O      -2.51941256      -1.02780025      -0.43372520        8 
O      -0.96145163      -1.72439476       1.02987252        8 
C      -3.22413527      -2.26869857      -0.24367394        6 
C       3.21087012      -2.28870262       0.25700117        6 
C       1.42878033       1.64312975      -0.04620788        6 
C       0.69007468       2.83092778      -0.01909761        6 
C      -0.69527521       2.82505415       0.02155602        6 
C      -1.42391491       1.63109299       0.04488481        6 
H      -2.59521924      -3.10884348      -0.54090035        1 
H       2.55946066      -3.11274824       0.55133683        1 
H      -1.23172773       3.76751105       0.04778712        1 
H      -3.51524679      -2.38859266       0.80115537        1 
H      -4.10254878      -2.20150171      -0.88190688        1 
H       4.08358326      -2.23789073       0.90423577        1 
H       3.50898424      -2.42010637      -0.78432931        1 
H       1.21790603       3.77816615      -0.04339579        1 
C      -2.93212079       1.69785300       0.14016730        6 
C       2.93479607       1.71591081      -0.14403820        6 
H       3.40971268       1.33643654       0.76231410        1 
H       3.25093140       2.74937442      -0.29532702        1 
H       3.31685343       1.12020494      -0.97658338        1 
H      -3.31659750       1.09758853       0.96827127        1 
H      -3.40535161       1.32323350      -0.76911025        1 
H      -3.25069119       2.73000705       0.29630849        1 
