30
Lattice="0.0 0.0 0.0 0.0 0.0 0.0 0.0 0.0 0.0" Properties=species:S:1:pos:R:3:Z:I:1 pbc="F F F"
C       0.47396088      -0.68122909       0.15190870        6 
C      -0.85621041      -0.25997914       0.07406450        6 
C       1.56459490       0.32527241       0.38102245        6 
C      -1.21284444       1.17253937       0.35746219        6 
O       2.18639560       0.63103890      -0.77492743        8 
O       1.87458504       0.78380600       1.45231894        8 
O      -1.05977963       1.94339317      -0.73837930        8 
O      -1.57198063       1.58987620       1.42872120        8 
C      -1.35671663       3.34447824      -0.56794365        6 
C       3.27300796       1.57177922      -0.67600538        6 
C       0.81183578      -2.03434595      -0.01425265        6 
C      -0.22377449      -2.93885029      -0.24487234        6 
C      -1.54828950      -2.51929101      -0.32350372        6 
C      -1.89315630      -1.17880380      -0.15826445        6 
H      -2.40356613       3.48018582      -0.29177976        1 
H       2.91794471       2.51973072      -0.26928664        1 
H      -2.33002813      -3.24830125      -0.50949130        1 
H      -0.72268291       3.77426021       0.20864838        1 
H      -1.15174592       3.80184819      -1.53304570        1 
H       3.63586914       1.70152163      -1.69295244        1 
H       4.06041740       1.17725667      -0.03175949        1 
H       0.01071627      -3.99076851      -0.36909944        1 
C      -3.33492475      -0.73460541      -0.21383551        6 
C       2.24647753      -2.49843615       0.05086816        6 
H       2.82327795      -2.11005834      -0.79353542        1 
H       2.30207489      -3.58792428       0.02519205        1 
H       2.73438372      -2.15786219       0.96838517        1 
H      -3.47865300       0.06839575      -0.94289458        1 
H      -3.66738704      -0.35834119       0.75779399        1 
H      -3.98537225      -1.56372223      -0.49759436        1 
