30
Lattice="0.0 0.0 0.0 0.0 0.0 0.0 0.0 0.0 0.0" Properties=species:S:1:pos:R:3:Z:I:1 pbc="F F F"
C      -0.43091532      -0.69957638       0.17488084        6 
C      -0.48326230       0.69390094      -0.13159613        6 
C       0.80468818      -1.49573668      -0.14223802        6 
C       0.68891795       1.57562672       0.19993095        6 
O       1.59592788      -0.84805477      -1.02849382        8 
O       0.98286099      -2.66188406       0.13044142        8 
O       1.63879884       0.91871194       0.90319543        8 
O       0.71655411       2.78022006       0.07627085        8 
C       2.73873484       1.71135332       1.37231518        6 
C       2.74743553      -1.57195576      -1.48519689        6 
C      -1.61461461      -1.43099372       0.38664173        6 
C      -2.83211773      -0.75997234       0.20549633        6 
C      -2.88070392       0.55284101      -0.21895411        6 
C      -1.71903691       1.32269428      -0.37193920        6 
H       3.27729623       2.15633692       0.53356537        1 
H       3.40539385      -1.81397804      -0.64829760        1 
H      -3.84320116       1.01825416      -0.40219938        1 
H       2.38675790       2.50618307       2.03195030        1 
H       3.37979093       1.01922949       1.91446653        1 
H       3.24776892      -0.90487752      -2.18401853        1 
H       2.44930027      -2.49629216      -1.98266349        1 
H      -3.75715540      -1.30475841       0.36092054        1 
C      -1.88800709       2.77349727      -0.75423501        6 
C      -1.66961115      -2.89681699       0.74993692        6 
H      -1.30530943      -3.52913728      -0.06319604        1 
H      -2.70136546      -3.17809513       0.97164467        1 
H      -1.04772431      -3.12516274       1.61533998        1 
H      -1.21828579       3.06307476      -1.56363549        1 
H      -1.66388963       3.43904278       0.08251541        1 
H      -2.91952463       2.94656939      -1.06899538        1 
