30
Lattice="0.0 0.0 0.0 0.0 0.0 0.0 0.0 0.0 0.0" Properties=species:S:1:pos:R:3:Z:I:1 pbc="F F F"
C       0.73533422       0.47340026       0.13462396        6 
C      -0.65696322       0.44685044      -0.05655387        6 
C       1.49305005      -0.81375318       0.33243707        6 
C      -1.30943600      -0.90101367      -0.08218583        6 
O       2.08787517      -1.20904961      -0.80288870        8 
O       1.60406029      -1.37681264       1.39424657        8 
O      -2.53494984      -0.90142927       0.47733462        8 
O      -0.79600253      -1.90043888      -0.53167622        8 
C      -3.21963374      -2.16849862       0.49341493        6 
C       2.74190114      -2.49156754      -0.75450783        6 
C       1.44366681       1.67824639       0.18887113        6 
C       0.71865269       2.85902672       0.02748301        6 
C      -0.65444713       2.83964227      -0.18989456        6 
C      -1.37775322       1.64560195      -0.22905581        6 
H      -3.36368522      -2.53751360      -0.52318041        1 
H       3.52074990      -2.49998241       0.00942709        1 
H      -1.18277597       3.77608223      -0.33299382        1 
H      -2.64752287      -2.90101778       1.06405388        1 
H      -4.17705676      -1.97156861       0.97067385        1 
H       3.16977575      -2.63483053      -1.74409833        1 
H       2.00631120      -3.26761905      -0.53806283        1 
H       1.24026658       3.80958225       0.06392242        1 
C      -2.86767047       1.70189949      -0.48087065        6 
C       2.93613606       1.69531974       0.41039031        6 
H       3.20665514       1.15571253       1.32231433        1 
H       3.30440788       2.71832446       0.49967651        1 
H       3.46069010       1.21563525      -0.42100090        1 
H      -3.43165930       1.47718135       0.42689390        1 
H      -3.18338987       0.97998540      -1.23684051        1 
H      -3.14975298       2.69880489      -0.82470317        1 
