30
Lattice="0.0 0.0 0.0 0.0 0.0 0.0 0.0 0.0 0.0" Properties=species:S:1:pos:R:3:Z:I:1 pbc="F F F"
C      -0.02974494      -0.74690155      -0.10383397        6 
C      -0.92894761       0.33054712       0.05631506        6 
C       1.46306711      -0.57558112      -0.21804966        6 
C      -0.46384471       1.74664500      -0.05967532        6 
O       2.02695923      -0.49620372       1.00220274        8 
O       2.08845828      -0.65652418      -1.24609330        8 
O       0.88093502       1.85063233      -0.05727337        8 
O      -1.18234623       2.71310686      -0.18139261        8 
C       1.42459265       3.16077975      -0.28389844        6 
C       3.46033249      -0.38349600       1.02114551        6 
C      -0.47830623      -2.07636466      -0.12655360        6 
C      -1.84327755      -2.30710038       0.03845769        6 
C      -2.73191507      -1.25834298       0.22346391        6 
C      -2.31211350       0.07282896       0.22576546        6 
H       1.06257960       3.56432365      -1.23035395        1 
H       3.92019426      -1.23813178       0.52227541        1 
H      -3.78582338      -1.47300355       0.36255352        1 
H       1.14487687       3.83483439       0.52708015        1 
H       2.50310561       3.02283410      -0.31464161        1 
H       3.73550395      -0.35710634       2.07309012        1 
H       3.77234319       0.53416003       0.51949914        1 
H      -2.21341315      -3.32712328       0.02821075        1 
C      -3.36393197       1.14016560       0.41283019        6 
C       0.46952069      -3.23642491      -0.32123161        6 
H       0.95151434      -3.19266245      -1.30085412        1 
H      -0.06556008      -4.18432677      -0.24535533        1 
H       1.26266804      -3.23855824       0.43244450        1 
H      -3.48839072       1.74236844      -0.48915966        1 
H      -3.10535065       1.83725314       1.21136028        1 
H      -4.31984781       0.67056575       0.65444653        1 
