30
Lattice="0.0 0.0 0.0 0.0 0.0 0.0 0.0 0.0 0.0" Properties=species:S:1:pos:R:3:Z:I:1 pbc="F F F"
C       0.19254459      -0.68649931      -0.01004630        6 
C      -1.00869494       0.06240069      -0.07281514        6 
C       1.49426152      -0.04312531      -0.40088189        6 
C      -0.97983579       1.55688283       0.01446516        6 
O       2.46613737      -0.26738912       0.50415446        8 
O       1.65883028       0.58441036      -1.41815111        8 
O       0.19681087       2.01021288       0.49769473        8 
O      -1.91947624       2.29270483      -0.18543411        8 
C       0.33900350       3.43586168       0.58890640        6 
C       3.75428432       0.28926446       0.18739949        6 
C       0.16875292      -2.08305864       0.13132602        6 
C      -1.07865193      -2.70613406       0.22789486        6 
C      -2.25575828      -1.98182812       0.15090170        6 
C      -2.25849681      -0.59103224       0.00234849        6 
H       0.24620276       3.88933342      -0.39913853        1 
H       4.13300903      -0.12783239      -0.74729625        1 
H      -3.20508427      -2.50250620       0.21418046        1 
H      -0.41842939       3.85508394       1.25278790        1 
H       1.33596432       3.60004531       0.99210310        1 
H       4.40026387       0.01779675       1.01934959        1 
H       3.68371054       1.37374858       0.09194635        1 
H      -1.12324301      -3.78451386       0.33907783        1 
C      -3.59537507       0.11020016      -0.04828348        6 
C       1.41529656      -2.93854715       0.13488142        6 
H       2.06223897      -2.71831019      -0.71845519        1 
H       1.14574360      -3.99483234       0.08272846        1 
H       2.00803666      -2.77863203       1.03785614        1 
H      -3.71745483       0.67650290      -0.97231703        1 
H      -3.70894627       0.82897702       0.76602094        1 
H      -4.39807424      -0.62646077       0.02352937        1 
