30
Lattice="0.0 0.0 0.0 0.0 0.0 0.0 0.0 0.0 0.0" Properties=species:S:1:pos:R:3:Z:I:1 pbc="F F F"
C       0.24620490      -0.72788644      -0.10731013        6 
C      -0.97684459      -0.05419511       0.01855406        6 
C       1.50201246       0.06603303      -0.31866196        6 
C      -1.02752601       1.42685154      -0.20702295        6 
O       2.32519597      -0.02827053       0.74145272        8 
O       1.76614548       0.68452721      -1.32148759        8 
O      -0.25438710       2.08901013       0.67802030        8 
O      -1.63925539       1.96263876      -1.09704632        8 
C      -0.09649747       3.50111931       0.43861121        6 
C       3.57133504       0.68566583       0.63237400        6 
C       0.30985000      -2.12876974      -0.04046252        6 
C      -0.88434820      -2.82167051       0.15785650        6 
C      -2.09654739      -2.15374779       0.29590301        6 
C      -2.17436534      -0.76374370       0.21138764        6 
H       0.35208428       3.66352041      -0.54249793        1 
H       4.15766985       0.30615294      -0.20596048        1 
H      -3.00499003      -2.72459431       0.45755066        1 
H      -1.06121160       4.00794747       0.48588988        1 
H       0.56175037       3.85561063       1.22864132        1 
H       4.08780228       0.51119606       1.57346199        1 
H       3.38440103       1.75046278       0.48674751        1 
H      -0.86480559      -3.90551915       0.20510736        1 
C      -3.50988084      -0.06744664       0.31470272        6 
C       1.61421699      -2.87513284      -0.18638787        6 
H       2.20528979      -2.49137051      -1.02205308        1 
H       1.43166649      -3.93620180      -0.36528438        1 
H       2.22347462      -2.78047649       0.71664044        1 
H      -3.81491096       0.33430046      -0.65474068        1 
H      -3.47768275       0.77273468       1.01354579        1 
H      -4.27816906      -0.76245490       0.65824931        1 
