30
Lattice="0.0 0.0 0.0 0.0 0.0 0.0 0.0 0.0 0.0" Properties=species:S:1:pos:R:3:Z:I:1 pbc="F F F"
C       0.71408246       0.40328300      -0.08973528        6 
C      -0.69375946       0.39683252      -0.11045924        6 
C       1.50655072      -0.85573273      -0.32354225        6 
C      -1.46546944      -0.88678506      -0.27417946        6 
O       2.30686388      -1.11919921       0.73902235        8 
O       1.43319229      -1.57271689      -1.28541113        8 
O      -2.32784171      -1.04863919       0.76135209        8 
O      -1.34264634      -1.69650421      -1.15454217        8 
C      -3.15831813      -2.22280654       0.70850898        6 
C       3.12010482      -2.30231101       0.62820426        6 
C       1.42125032       1.60883595       0.06880605        6 
C       0.68804815       2.78830603       0.19315015        6 
C      -0.70036590       2.78277904       0.16218108        6 
C      -1.41870623       1.59659036       0.01824645        6 
H      -3.79087702      -2.20423228      -0.18092722        1 
H       2.49270181      -3.18513336       0.49606731        1 
H      -1.24104650       3.71999207       0.24034630        1 
H      -2.54596171      -3.12548627       0.69128513        1 
H      -3.76560178      -2.18795981       1.61048200        1 
H       3.67476817      -2.36074801       1.56216659        1 
H       3.80225841      -2.21995872      -0.21973025        1 
H       1.21646853       3.72983793       0.29723735        1 
C      -2.92962083       1.64458656      -0.03428699        6 
C       2.93136324       1.65999798       0.06649300        6 
H       3.34233501       1.27435579       1.00220913        1 
H       3.27554363       2.68739755      -0.06306421        1 
H       3.35353650       1.06084731      -0.74455183        1 
H      -3.37095889       1.29779801       0.90259044        1 
H      -3.32906274       1.01502840      -0.83342683        1 
H      -3.26742612       2.66663784      -0.21518815        1 
