30
Lattice="0.0 0.0 0.0 0.0 0.0 0.0 0.0 0.0 0.0" Properties=species:S:1:pos:R:3:Z:I:1 pbc="F F F"
C      -0.09413769      -0.78518264      -0.10676172        6 
C      -0.88917473       0.36161247       0.02375851        6 
C       1.39612180      -0.69080743      -0.28763411        6 
C      -0.30751691       1.70857855      -0.28854619        6 
O       2.02225395      -0.62154687       0.89927199        8 
O       1.96921788      -0.77020174      -1.34749133        8 
O       0.73365012       2.01358333       0.50883744        8 
O      -0.68894213       2.41662122      -1.18876084        8 
C       1.43477785       3.23252098       0.19296165        6 
C       3.45967811      -0.55665208       0.84921955        6 
C      -0.65612201      -2.06994723      -0.01844945        6 
C      -2.02596846      -2.16345129       0.22091803        6 
C      -2.81550750      -1.02680491       0.36180251        6 
C      -2.27580474       0.25247665       0.24002539        6 
H       1.85114180       3.17677255      -0.81408247        1 
H       3.86617207      -1.43759879       0.34997195        1 
H      -3.87757614      -1.13603576       0.55452519        1 
H       0.76158276       4.08824981       0.25719000        1 
H       2.22602339       3.30913952       0.93517019        1 
H       3.78282617      -0.51700789       1.88681541        1 
H       3.77818802       0.33826788       0.31210076        1 
H      -2.48282642      -3.14426586       0.30307558        1 
C      -3.17002017       1.46483630       0.33606253        6 
C       0.18817064      -3.31178598      -0.17418584        6 
H       0.65227966      -3.35208934      -1.16321669        1 
H      -0.41943913      -4.20904535      -0.04592033        1 
H       0.99308965      -3.34250261       0.56653035        1 
H      -3.27604561       1.94861369      -0.63770902        1 
H      -2.76816630       2.21334027       1.02439772        1 
H      -4.16199076       1.17913129       0.69071293        1 
