30
Lattice="0.0 0.0 0.0 0.0 0.0 0.0 0.0 0.0 0.0" Properties=species:S:1:pos:R:3:Z:I:1 pbc="F F F"
C       0.66402738       0.45002861       0.04262872        6 
C      -0.73158705       0.44473499      -0.15078815        6 
C       1.34517494      -0.87821987      -0.07115976        6 
C      -1.51491055      -0.83594990      -0.29823089        6 
O       2.66708970      -0.79212613      -0.31748932        8 
O       0.77723269      -1.94486164       0.01236211        8 
O      -1.83113272      -1.34624456       0.90435703        8 
O      -1.94229724      -1.25344570      -1.34674068        8 
C      -2.54940764      -2.59352246       0.88317930        6 
C       3.35545570      -2.04747981      -0.47336856        6 
C       1.34148512       1.67147394       0.25545331        6 
C       0.57748144       2.84107118       0.24757998        6 
C      -0.79322821       2.82599659       0.02269513        6 
C      -1.47932000       1.62830546      -0.17269329        6 
H      -3.48469851      -2.49099660       0.33066482        1 
H       3.26621108      -2.64644598       0.43395824        1 
H      -1.34505388       3.76014741       0.01389776        1 
H      -1.93294764      -3.36445452       0.41822344        1 
H      -2.74205549      -2.83444401       1.92631069        1 
H       4.39384122      -1.78368873      -0.66131712        1 
H       2.94014275      -2.60574037      -1.31336939        1 
H       1.07501178       3.78914507       0.41974978        1 
C      -2.97482113       1.61484419      -0.38784035        6 
C       2.82471266       1.79536632       0.51642183        6 
H       3.16499461       1.09424293       1.27994700        1 
H       3.05455833       2.80824862       0.85206529        1 
H       3.40735059       1.58864042      -0.38349166        1 
H      -3.47816613       1.00125337       0.36545021        1 
H      -3.22879684       1.19876202      -1.36577311        1 
H      -3.38162506       2.62510457      -0.32545980        1 
