30
Lattice="0.0 0.0 0.0 0.0 0.0 0.0 0.0 0.0 0.0" Properties=species:S:1:pos:R:3:Z:I:1 pbc="F F F"
C       0.30335262      -0.59924785       0.06845719        6 
C      -0.96949043       0.01720494      -0.14449022        6 
C       1.51752951       0.12149189      -0.45569003        6 
C      -1.15151251       1.49393145       0.10280034        6 
O       2.66784629      -0.26812542       0.13718475        8 
O       1.48473019       0.98347575      -1.29937404        8 
O      -0.03176642       2.09249631       0.55142053        8 
O      -2.22184253       2.06197410       0.12917710        8 
C      -0.15918129       3.47269382       0.92183135        6 
C       3.86283028       0.37091930      -0.34389260        6 
C       0.38634785      -1.98067585       0.33266667        6 
C      -0.80457622      -2.72089172       0.33277680        6 
C      -2.01705951      -2.14310556       0.01837586        6 
C      -2.13967976      -0.76469152      -0.20288417        6 
H      -0.49945497       4.06717727       0.07270644        1 
H       3.99340702       0.18720549      -1.41150760        1 
H      -2.90686791      -2.76154891      -0.02923275        1 
H      -0.86686389       3.58555665       1.74506696        1 
H       0.83861338       3.78024535       1.22744973        1 
H       4.67700437      -0.07281663       0.22526532        1 
H       3.81324744       1.44703787      -0.17122258        1 
H      -0.75899469      -3.78548389       0.53556059        1 
C      -3.52850462      -0.23001969      -0.46451088        6 
C       1.66988181      -2.74836557       0.56701883        6 
H       2.32709430      -2.72036824      -0.30466511        1 
H       1.43593462      -3.79294510       0.78059539        1 
H       2.23675673      -2.33901837       1.40288234        1 
H      -3.54870294       0.47698231      -1.29285197        1 
H      -3.92216076       0.30328171       0.40374197        1 
H      -4.19780062      -1.06277289      -0.69329902        1 
