30
Lattice="0.0 0.0 0.0 0.0 0.0 0.0 0.0 0.0 0.0" Properties=species:S:1:pos:R:3:Z:I:1 pbc="F F F"
C       0.77510595       0.45473515      -0.12175771        6 
C      -0.60336834       0.43717169       0.14216434        6 
C       1.55680640      -0.82422325      -0.25418710        6 
C      -1.33300535      -0.87785885       0.10732951        6 
O       1.74450828      -1.40445983       0.93777536        8 
O       2.03792763      -1.22551199      -1.28814083        8 
O      -2.35301101      -0.83042371      -0.77729347        8 
O      -1.06446917      -1.86561684       0.74660148        8 
C      -3.14558448      -2.02729551      -0.89571647        6 
C       2.41289024      -2.68035547       0.92793252        6 
C       1.47620511       1.66388288      -0.23203796        6 
C       0.76074198       2.84529742      -0.03742180        6 
C      -0.59892070       2.82951272       0.25579462        6 
C      -1.31524160       1.63467261       0.33131576        6 
H      -2.52743113      -2.86215627      -1.22859334        1 
H       1.81265735      -3.40821299       0.37998491        1 
H      -1.11943837       3.76683684       0.42146181        1 
H      -3.60328936      -2.27888088       0.06255559        1 
H      -3.90737298      -1.79540233      -1.63656605        1 
H       2.49684608      -2.96820859       1.97304274        1 
H       3.39733091      -2.59588469       0.46581812        1 
H       1.28145039       3.79446969      -0.10595612        1 
C      -2.79733280       1.66378343       0.62672654        6 
C       2.95242080       1.68877023      -0.54457205        6 
H       3.52002459       1.07382235       0.16033703        1 
H       3.34040361       2.70688860      -0.49277785        1 
H       3.14643604       1.29213747      -1.54420609        1 
H      -3.09366461       0.86551512       1.31120011        1 
H      -3.38348469       1.54048282      -0.28741071        1 
H      -3.07320305       2.61617416       1.08349891        1 
