30
Lattice="0.0 0.0 0.0 0.0 0.0 0.0 0.0 0.0 0.0" Properties=species:S:1:pos:R:3:Z:I:1 pbc="F F F"
C       0.72355441       0.38524024      -0.13237116        6 
C      -0.68256526       0.39960157      -0.02043930        6 
C       1.42595196      -0.94567714      -0.15399798        6 
C      -1.52705643      -0.80543075      -0.35111610        6 
O       2.51611576      -0.93097800       0.65118884        8 
O       1.07235198      -1.93811970      -0.73896384        8 
O      -2.24894532      -1.20772877       0.72047663        8 
O      -1.56011416      -1.35319515      -1.41980582        8 
C      -3.11953388      -2.33437401       0.49852009        6 
C       3.24918129      -2.16650930       0.72822710        6 
C       1.45239994       1.58965876      -0.08976164        6 
C       0.74086520       2.77818589       0.08098629        6 
C      -0.63817473       2.78542051       0.23898956        6 
C      -1.37845537       1.60508297       0.17826089        6 
H      -3.86382296      -2.09633464      -0.26353963        1 
H       2.61885223      -2.95889006       1.13503055        1 
H      -1.15648904       3.72804922       0.37947309        1 
H      -2.54248272      -3.20220861       0.17673821        1 
H      -3.59925247      -2.52270500       1.45652131        1 
H       4.08678839      -1.96417526       1.39225468        1 
H       3.60280445      -2.46521558      -0.25996620        1 
H       1.28326914       3.71747706       0.09064711        1 
C      -2.88710659       1.65312832       0.27570135        6 
C       2.95291295       1.66251112      -0.25840138        6 
H       3.46784984       1.41854369       0.67307988        1 
H       3.24211428       2.67143023      -0.55901962        1 
H       3.31433061       0.96668956      -1.01763510        1 
H      -3.24273091       1.16359103       1.18490852        1 
H      -3.35964939       1.14583280      -0.57090976        1 
H      -3.23580170       2.68695383       0.28027046        1 
