30
Lattice="0.0 0.0 0.0 0.0 0.0 0.0 0.0 0.0 0.0" Properties=species:S:1:pos:R:3:Z:I:1 pbc="F F F"
C       0.94403694       0.23541361      -0.11851587        6 
C      -0.42177690       0.58728222       0.02505925        6 
C       1.36091071      -1.20729049      -0.06286305        6 
C      -1.42074269      -0.47226019      -0.34327178        6 
O       0.71860326      -1.85453217       0.93470898        8 
O       2.26750613      -1.69799129      -0.69156201        8 
O      -2.66356246      -0.22674013       0.11946750        8 
O      -1.15383411      -1.47355512      -0.96835475        8 
C      -3.66422574      -1.20677402      -0.21075858        6 
C       0.94213378      -3.27192946       1.00804528        6 
C       1.95681938       1.20343324      -0.08880656        6 
C       1.56547530       2.53386291       0.09560770        6 
C       0.23542639       2.88266184       0.26071969        6 
C      -0.79356597       1.93400560       0.21346797        6 
H      -3.76448641      -1.30243476      -1.29289372        1 
H       0.56388085      -3.75054254       0.10256027        1 
H      -0.02337059       3.92541159       0.40826168        1 
H      -3.40037746      -2.17736454       0.21148692        1 
H      -4.58680736      -0.83444945       0.22957700        1 
H       0.38350950      -3.60883845       1.87883140        1 
H       2.00393029      -3.49402239       1.12254289        1 
H       2.32635916       3.30650636       0.12404739        1 
C      -2.21581086       2.43371447       0.33729089        6 
C       3.42377784       0.87115807      -0.22042368        6 
H       3.74081953       0.13201299       0.51940374        1 
H       4.02529079       1.77172766      -0.08612900        1 
H       3.64401038       0.44079648      -1.19858437        1 
H      -2.72249713       1.99721504       1.19915138        1 
H      -2.81515364       2.17972076      -0.53932462        1 
H      -2.21570068       3.51961576       0.44720477        1 
