30
Lattice="0.0 0.0 0.0 0.0 0.0 0.0 0.0 0.0 0.0" Properties=species:S:1:pos:R:3:Z:I:1 pbc="F F F"
C       0.09304517      -0.79076114       0.13400432        6 
C      -0.94024161       0.14447750       0.00847979        6 
C       1.50860360      -0.33220016       0.34535441        6 
C      -0.66690710       1.59138460       0.29697459        6 
O       2.18139687      -0.30426512      -0.81903893        8 
O       2.00382212      -0.08117507       1.41681734        8 
O       0.15921837       2.13638763      -0.61836486        8 
O      -1.08795699       2.18440170       1.25866893        8 
C       0.56430457       3.49731283      -0.36813468        6 
C       3.56216897       0.09675605      -0.74137119        6 
C      -0.15963200      -2.16748169       0.02099490        6 
C      -1.47379147      -2.56815988      -0.21620003        6 
C      -2.50215787      -1.63938278      -0.34369148        6 
C      -2.26438177      -0.27173317      -0.21614326        6 
H      -0.30748829       4.15019331      -0.31080791        1 
H       3.63826532       1.11588845      -0.35865151        1 
H      -3.51297717      -1.98448114      -0.53386358        1 
H       1.12106513       3.55776615       0.56834298        1 
H       1.19456845       3.76990530      -1.21145750        1 
H       3.93637500       0.04133452      -1.76095820        1 
H       4.11959918      -0.57527956      -0.08695902        1 
H      -1.69511565      -3.62631100      -0.30877931        1 
C      -3.40038041       0.71739565      -0.31299375        6 
C       0.95000853      -3.18314234       0.14621312        6 
H       1.68367004      -3.06518888      -0.65646809        1 
H       0.55277925      -4.19810371       0.09376285        1 
H       1.48123230      -3.07740909       1.09641720        1 
H      -3.17957604       1.51643427      -1.02635521        1 
H      -3.59006593       1.18976954       0.65415185        1 
H      -4.31574148       0.22046098      -0.63910515        1 
