30
Lattice="0.0 0.0 0.0 0.0 0.0 0.0 0.0 0.0 0.0" Properties=species:S:1:pos:R:3:Z:I:1 pbc="F F F"
C       0.73233917       0.46326490      -0.06304369        6 
C      -0.67924468       0.46115742      -0.04338951        6 
C       1.50264817      -0.79700048      -0.37227134        6 
C      -1.33068582      -0.88704612       0.00893495        6 
O       2.08635022      -1.30922169       0.72456772        8 
O       1.62292996      -1.24656956      -1.48408538        8 
O      -2.67850330      -0.84847273       0.00160202        8 
O      -0.72361791      -1.93439636       0.04694017        8 
C      -3.34595424      -2.12250324       0.04907343        6 
C       2.74850622      -2.57499081       0.54025270        6 
C       1.46796342       1.65046489       0.01213484        6 
C       0.75783433       2.84636428       0.11531669        6 
C      -0.62999258       2.85838144       0.12293145        6 
C      -1.38507328       1.68412330       0.05156407        6 
H      -3.08351775      -2.72356660      -0.82261855        1 
H       2.03082648      -3.31480397       0.18277992        1 
H      -1.15006104       3.80731173       0.19319231        1 
H      -3.07135356      -2.66521977       0.95460599        1 
H      -4.40853835      -1.88865448       0.04850670        1 
H       3.12788320      -2.84925449       1.52217412        1 
H       3.56567993      -2.48272315      -0.17703364        1 
H       1.30115292       3.78333945       0.17779969        1 
C      -2.89079003       1.82079633       0.08546276        6 
C       2.97700453       1.64306836      -0.04137875        6 
H       3.39903860       1.08510396       0.79833344        1 
H       3.36971877       2.66019330      -0.01030085        1 
H       3.33488710       1.16921204      -0.96023551        1 
H      -3.32444788       1.32431394       0.95549631        1 
H      -3.35761232       1.37283544      -0.79291179        1 
H      -3.16192297       2.87763669       0.12108716        1 
