30
Lattice="0.0 0.0 0.0 0.0 0.0 0.0 0.0 0.0 0.0" Properties=species:S:1:pos:R:3:Z:I:1 pbc="F F F"
C       0.76605886       0.44711492       0.17688621        6 
C      -0.62096217       0.42554052      -0.07367757        6 
C       1.57029926      -0.82364371       0.27224269        6 
C      -1.31300996      -0.89755654       0.07752840        6 
O       1.76308841      -1.35210753      -0.94706977        8 
O       2.10615392      -1.22216453       1.27819490        8 
O      -2.59164273      -0.76801968       0.48877881        8 
O      -0.80334832      -1.98017397      -0.10130680        8 
C      -3.32207156      -1.99469154       0.67352956        6 
C       2.43994869      -2.62143959      -0.98386816        6 
C       1.48001709       1.65015277       0.23860158        6 
C       0.77310764       2.83122036       0.01224622        6 
C      -0.58358487       2.81502117      -0.28546267        6 
C      -1.31810650       1.62762653      -0.32126735        6 
H      -3.36326682      -2.55894350      -0.25926838        1 
H       3.41201362      -2.55640980      -0.49347726        1 
H      -1.09293736       3.75078324      -0.48868670        1 
H      -2.84945415      -2.60697709       1.44261971        1 
H      -4.31948867      -1.69032497       0.98352637        1 
H       2.55390655      -2.85786873      -2.03947842        1 
H       1.82615012      -3.37503252      -0.48771750        1 
H       1.30075926       3.77838421       0.04895379        1 
C      -2.79200536       1.70968248      -0.65186336        6 
C       2.96297609       1.67510645       0.51909613        6 
H       3.18110817       1.27759634       1.51283210        1 
H       3.34814081       2.69379341       0.45791168        1 
H       3.51342242       1.06112984      -0.20008045        1 
H      -3.40805868       1.59458933       0.24241793        1 
H      -3.10063142       0.93245980      -1.35246208        1 
H      -3.01463416       2.68063331      -1.09892818        1 
