30
Lattice="0.0 0.0 0.0 0.0 0.0 0.0 0.0 0.0 0.0" Properties=species:S:1:pos:R:3:Z:I:1 pbc="F F F"
C       0.65087837       0.50494353       0.06589326        6 
C      -0.75550731       0.41540064       0.06656216        6 
C       1.38906260      -0.79463904       0.13815914        6 
C      -1.47569921      -0.89118139       0.29253783        6 
O       2.69307411      -0.70421762      -0.19072935        8 
O       0.87498404      -1.85114095       0.43245447        8 
O      -1.68857189      -1.54462095      -0.86496896        8 
O      -1.89373458      -1.24828267       1.36444781        8 
C      -2.32477462      -2.83141079      -0.74578299        6 
C       3.43093299      -1.94008445      -0.16603092        6 
C       1.27449448       1.77122450      -0.02681227        6 
C       0.44565069       2.88981664      -0.14269314        6 
C      -0.93901528       2.78446918      -0.17748191        6 
C      -1.56983171       1.54703011      -0.06402258        6 
H      -1.70204062      -3.49640628      -0.14566901        1 
H       3.39456976      -2.38813038       0.82775803        1 
H      -1.54134784       3.68080713      -0.28367101        1 
H      -3.30685826      -2.73307951      -0.28065967        1 
H      -2.41713264      -3.20406310      -1.76370586        1 
H       4.45091675      -1.67028757      -0.43103169        1 
H       3.01817579      -2.64335763      -0.89089543        1 
H       0.90070887       3.87160873      -0.20942749        1 
C      -3.07624121       1.43450937      -0.07155779        6 
C       2.76727724       1.99881064       0.00981112        6 
H       3.23252524       1.50389217       0.86359512        1 
H       2.97495749       3.06835809       0.07550839        1 
H       3.25426559       1.60569742      -0.88449946        1 
H      -3.45096710       1.08973780       0.89618588        1 
H      -3.41687995       0.71910008      -0.82546715        1 
H      -3.53522424       2.39984878      -0.29090998        1 
