30
Lattice="0.0 0.0 0.0 0.0 0.0 0.0 0.0 0.0 0.0" Properties=species:S:1:pos:R:3:Z:I:1 pbc="F F F"
C       0.78987241       0.42870582       0.20155039        6 
C      -0.59035067       0.40277707      -0.09878876        6 
C       1.61642462      -0.83011879       0.22908510        6 
C      -1.31377044      -0.90096098       0.11026955        6 
O       1.61734870      -1.41275128      -0.98087054        8 
O       2.33682769      -1.16652059       1.13910914        8 
O      -2.56553581      -0.70329073       0.58022179        8 
O      -0.86219544      -2.00959852      -0.05513805        8 
C      -3.33860895      -1.88977799       0.83523715        6 
C       2.30226748      -2.67311228      -1.07904878        6 
C       1.49084814       1.64006116       0.29253210        6 
C       0.78326178       2.81553646       0.03275279        6 
C      -0.55607586       2.78986174      -0.33012309        6 
C      -1.28149179       1.59727247      -0.38538163        6 
H      -3.46622962      -2.46847494      -0.08119916        1 
H       3.34255612      -2.57623590      -0.76549371        1 
H      -1.06032585       3.72090661      -0.56586618        1 
H      -2.84803244      -2.51101942       1.58565523        1 
H      -4.29930471      -1.53293022       1.20040958        1 
H       2.23948028      -2.95476193      -2.12776280        1 
H       1.79675856      -3.41297513      -0.45620575        1 
H       1.30296092       3.76612823       0.08844503        1 
C      -2.74097570       1.66536898      -0.77799058        6 
C       2.96296091       1.69598793       0.62345474        6 
H       3.15671009       1.30772737       1.62503053        1 
H       3.32489621       2.72361846       0.56780333        1 
H       3.55324504       1.08947071      -0.06930959        1 
H      -3.38909370       1.63342893       0.10044313        1 
H      -3.03407621       0.83546224      -1.42197089        1 
H      -2.93402095       2.59749054      -1.31320410        1 
