30
Lattice="0.0 0.0 0.0 0.0 0.0 0.0 0.0 0.0 0.0" Properties=species:S:1:pos:R:3:Z:I:1 pbc="F F F"
C       0.71268744       0.43395873      -0.01439896        6 
C      -0.70291691       0.42366345      -0.06318135        6 
C       1.46902404      -0.81535967      -0.38990863        6 
C      -1.35305431      -0.91541111       0.13712839        6 
O       2.37234133      -1.16816908       0.54302593        8 
O       1.28452450      -1.42500041      -1.41333175        8 
O      -2.68704191      -0.91013079      -0.06663905        8 
O      -0.75541346      -1.92594652       0.42838888        8 
C      -3.35308975      -2.17463862       0.09943593        6 
C       3.08001018      -2.39579928       0.28597962        6 
C       1.43175957       1.63266082       0.06131221        6 
C       0.70330184       2.82435743       0.11027024        6 
C      -0.68052977       2.82432033       0.04922989        6 
C      -1.42128182       1.63860613      -0.02424722        6 
H      -2.96539508      -2.90509338      -0.61200131        1 
H       2.37297949      -3.22360800       0.21507370        1 
H      -1.21205579       3.76928651       0.07279202        1 
H      -3.21212545      -2.55214809       1.11325567        1 
H      -4.40477769      -1.97182108      -0.09236284        1 
H       3.74629945      -2.52939524       1.13532919        1 
H       3.64799687      -2.32531099      -0.64306855        1 
H       1.23525353       3.76770838       0.17330420        1 
C      -2.92892872       1.76127364      -0.03852004        6 
C       2.94223731       1.67288647       0.04779762        6 
H       3.35928490       1.22323453       0.95109604        1 
H       3.29411366       2.70328223      -0.02191323        1 
H       3.34918363       1.12010983      -0.80342431        1 
H      -3.38375875       1.28705621       0.83348994        1 
H      -3.36528129       1.28375822      -0.91634079        1 
H      -3.21014421       2.81615119      -0.03954744        1 
