30
Lattice="0.0 0.0 0.0 0.0 0.0 0.0 0.0 0.0 0.0" Properties=species:S:1:pos:R:3:Z:I:1 pbc="F F F"
C      -0.39217557      -0.75118231      -0.08006426        6 
C      -0.71140749       0.60731830       0.03328081        6 
C       1.03525763      -1.18699591      -0.26056603        6 
C       0.38759105       1.61146357       0.21524151        6 
O       1.69238119      -1.20069273       0.91562793        8 
O       1.53930379      -1.47417550      -1.31683390        8 
O       1.14951634       1.70859465      -0.89058763        8 
O       0.60110229       2.21866975       1.23573181        8 
C       2.30237041       2.56635585      -0.79791664        6 
C       3.07937189      -1.58870564       0.86112818        6 
C      -1.39946436      -1.72846772      -0.13390280        6 
C      -2.72394679      -1.30076576      -0.05872904        6 
C      -3.04229988       0.04903062       0.05415776        6 
C      -2.04998730       1.02628447       0.11620287        6 
H       1.99798054       3.59613445      -0.60530437        1 
H       3.17362376      -2.60923556       0.48645609        1 
H      -4.08352301       0.35036319       0.10142971        1 
H       2.96021807       2.23046945       0.00536032        1 
H       2.79852543       2.48503694      -1.76208713        1 
H       3.43828728      -1.51970341       1.88519746        1 
H       3.63723539      -0.91487650       0.20916823        1 
H      -3.52013853      -2.03707542      -0.09396602        1 
C      -2.41544492       2.48237390       0.27213696        6 
C      -1.06747174      -3.19438612      -0.27912547        6 
H      -0.57497191      -3.39469246      -1.23447620        1 
H      -1.97304588      -3.80151686      -0.23015902        1 
H      -0.39463461      -3.53409026       0.51418055        1 
H      -1.92429571       3.10438442      -0.48166715        1 
H      -2.11224023       2.86000388       1.25202663        1 
H      -3.49319186       2.61904412       0.16961013        1 
