30
Lattice="0.0 0.0 0.0 0.0 0.0 0.0 0.0 0.0 0.0" Properties=species:S:1:pos:R:3:Z:I:1 pbc="F F F"
C       1.01149356       0.03829095      -0.06755237        6 
C      -0.24097359       0.69024407      -0.02241087        6 
C       1.08009101      -1.45802472      -0.03267428        6 
C      -1.46960358      -0.09327521      -0.38885372        6 
O       0.04525676      -1.98534878       0.66022154        8 
O       1.99034454      -2.13052285      -0.45679661        8 
O      -2.48966856       0.11953793       0.46493527        8 
O      -1.54307267      -0.83238027      -1.34116940        8 
C      -3.71021249      -0.58587779       0.17412551        6 
C      -0.04691785      -3.41916097       0.67023611        6 
C       2.20721770       0.77237961       0.02900295        6 
C       2.09946460       2.15989449       0.16885090        6 
C       0.86848721       2.79691717       0.21395415        6 
C      -0.32949880       2.08402661       0.10748924        6 
H      -4.09975734      -0.29218885      -0.80201354        1 
H      -0.20291759      -3.79103003      -0.34403848        1 
H       0.83081280       3.87646317       0.31410728        1 
H      -3.53572600      -1.66270392       0.18018920        1 
H      -4.40260707      -0.30454868       0.96453156        1 
H      -0.90610494      -3.64903089       1.29697101        1 
H       0.86029791      -3.86108887       1.08407578        1 
H       3.00640224       2.74915397       0.24861301        1 
C      -1.64243507       2.83378894       0.09289418        6 
C       3.57807810       0.14067006       0.01054003        6 
H       3.67948700      -0.63321143       0.77471227        1 
H       4.34074621       0.90161987       0.18548064        1 
H       3.77723939      -0.34587441      -0.94540858        1 
H      -2.22093308       2.64473198       0.99978907        1 
H      -2.27000243       2.53867934      -0.75197240        1 
H      -1.46161028       3.90727343       0.01640140        1 
