30
Lattice="0.0 0.0 0.0 0.0 0.0 0.0 0.0 0.0 0.0" Properties=species:S:1:pos:R:3:Z:I:1 pbc="F F F"
C       0.96504459       0.21046255       0.00082320        6 
C      -0.34831266       0.68423789      -0.11318223        6 
C       1.23310752      -1.25104537      -0.21730502        6 
C      -1.45109014      -0.31485896      -0.30808413        6 
O       0.65223822      -2.00474113       0.73973082        8 
O       1.84046089      -1.70292020      -1.15440081        8 
O      -2.36877408      -0.23837411       0.67492105        8 
O      -1.52618059      -1.09154353      -1.23032169        8 
C      -3.48445604      -1.14317622       0.56862447        6 
C       0.67407582      -3.42918873       0.51587427        6 
C       2.04001607       1.08869200       0.19189081        6 
C       1.74887939       2.45041934       0.28007373        6 
C       0.44596678       2.92331104       0.15251474        6 
C      -0.63121935       2.05660211      -0.03827300        6 
H      -4.04175939      -0.95686836      -0.35103477        1 
H       0.14899132      -3.66392429      -0.41145700        1 
H       0.25990298       3.99094961       0.20197525        1 
H      -3.13630894      -2.17699543       0.57367841        1 
H      -4.10296805      -0.94178700       1.44029731        1 
H       0.16257858      -3.86378703       1.37184645        1 
H       1.70081133      -3.79205432       0.45510458        1 
H       2.55841564       3.15501750       0.43769997        1 
C      -2.03538723       2.59696411      -0.17110993        6 
C       3.45723784       0.57987069       0.28532099        6 
H       3.54141701      -0.24346030       1.00042988        1 
H       4.13499977       1.37387616       0.60245745        1 
H       3.79552536       0.19842686      -0.68166294        1 
H      -2.60451276       2.44377693       0.74982628        1 
H      -2.58595286       2.10332483      -0.97614909        1 
H      -2.01493962       3.66668574      -0.38662884        1 
