30
Lattice="0.0 0.0 0.0 0.0 0.0 0.0 0.0 0.0 0.0" Properties=species:S:1:pos:R:3:Z:I:1 pbc="F F F"
C       0.66849433       0.50082481      -0.16076975        6 
C      -0.72868431       0.44104861      -0.08652029        6 
C       1.43822798      -0.77796913      -0.32713101        6 
C      -1.46472513      -0.84414521      -0.36107401        6 
O       2.25235273      -0.99221015       0.73052120        8 
O       1.34719373      -1.53861783      -1.25769558        8 
O      -1.82529872      -1.45413774       0.78969348        8 
O      -1.70219875      -1.28330769      -1.45511385        8 
C      -2.54420111      -2.69589214       0.64295830        6 
C       3.04158312      -2.19623165       0.68071385        6 
C       1.34193290       1.72561982      -0.02341755        6 
C       0.57075781       2.87061942       0.17626913        6 
C      -0.81648087       2.80616959       0.26847704        6 
C      -1.49425909       1.59498787       0.13708803        6 
H      -3.48464827      -2.53140932       0.11413652        1 
H       2.39454947      -3.07351996       0.63400390        1 
H      -1.38488943       3.71568270       0.43258151        1 
H      -1.94338568      -3.41837276       0.08886090        1 
H      -2.72979640      -3.04372156       1.65661987        1 
H       3.62367642      -2.19762119       1.59945459        1 
H       3.69689793      -2.18903960      -0.19174127        1 
H       1.06582519       3.83165617       0.26423637        1 
C      -3.00098060       1.52502846       0.21608542        6 
C       2.84644766       1.81617814      -0.10316891        6 
H       3.30993735       1.44919607       0.81605236        1 
H       3.16112741       2.84959249      -0.25787358        1 
H       3.24166612       1.21718181      -0.92777568        1 
H      -3.32381746       0.92216131       1.06987652        1 
H      -3.42397433       1.06964722      -0.68439078        1 
H      -3.43189168       2.52150198       0.32345313        1 
