30
Lattice="0.0 0.0 0.0 0.0 0.0 0.0 0.0 0.0 0.0" Properties=species:S:1:pos:R:3:Z:I:1 pbc="F F F"
C       0.58079299       0.38806982      -0.10104974        6 
C      -0.79523254       0.39317203       0.24212568        6 
C       1.34243686      -0.87989632       0.19468356        6 
C      -1.63050469      -0.85934076       0.17893519        6 
O       2.61813604      -0.61847614       0.56020134        8 
O       0.90479265      -2.00572492       0.18451531        8 
O      -1.43209127      -1.49188402      -0.99209358        8 
O      -2.53793071      -1.13392192       0.93001665        8 
C      -2.16249155      -2.71366764      -1.18376631        6 
C       3.41236660      -1.76445701       0.91517329        6 
C       1.23510922       1.58584937      -0.44257359        6 
C       0.49225760       2.76900000      -0.37785157        6 
C      -0.82526725       2.78119590       0.05059862        6 
C      -1.50948836       1.59844271       0.34921282        6 
H      -1.83963656      -3.45654584      -0.45215279        1 
H       2.97149435      -2.28358722       1.76745054        1 
H      -1.35608123       3.72491724       0.11776578        1 
H      -3.23591410      -2.54505144      -1.08444805        1 
H      -1.91495158      -3.04222391      -2.19077143        1 
H       4.39176400      -1.36654481       1.17186585        1 
H       3.48512296      -2.45695038       0.07500840        1 
H       0.96928451       3.70292647      -0.65520372        1 
C      -2.97411215       1.66714191       0.71592406        6 
C       2.67079633       1.67292076      -0.90790204        6 
H       3.36016097       1.72118548      -0.06212783        1 
H       2.80345407       2.57386731      -1.51094075        1 
H       2.96090864       0.81178109      -1.50975406        1 
H      -3.15865958       1.24560938       1.70480413        1 
H      -3.59325444       1.09835232       0.01701897        1 
H      -3.31227985       2.70461255       0.70430160        1 
