30
Lattice="0.0 0.0 0.0 0.0 0.0 0.0 0.0 0.0 0.0" Properties=species:S:1:pos:R:3:Z:I:1 pbc="F F F"
C       0.64429532       0.45152093       0.14787844        6 
C      -0.72996897       0.45579726      -0.12493920        6 
C       1.36197542      -0.86794103       0.14611338        6 
C      -1.49631700      -0.83195227      -0.27043093        6 
O       2.34456979      -0.88140427      -0.77776899        8 
O       1.10140184      -1.81407455       0.84941330        8 
O      -1.81820284      -1.34526647       0.92448704        8 
O      -1.86131566      -1.29262247      -1.32661362        8 
C      -2.53659403      -2.59437353       0.90645432        6 
C       3.09131427      -2.10899872      -0.88708979        6 
C       1.34398883       1.65554668       0.32846254        6 
C       0.61687407       2.84330636       0.24349501        6 
C      -0.74423785       2.84473603      -0.04766304        6 
C      -1.44685291       1.65533134      -0.23731587        6 
H      -3.47074158      -2.49126573       0.35224478        1 
H       3.58075013      -2.34458564       0.05925066        1 
H      -1.27518660       3.78818443      -0.11880462        1 
H      -1.92346414      -3.37028946       0.44616315        1 
H      -2.72851444      -2.82990159       1.95045739        1 
H       3.82721562      -1.92917532      -1.66735834        1 
H       2.42983024      -2.93085628      -1.16475353        1 
H       1.12810062       3.78664261       0.40319558        1 
C      -2.92583812       1.65738865      -0.54246293        6 
C       2.82424485       1.68468109       0.62305348        6 
H       3.10800933       0.91488886       1.34515760        1 
H       3.11257795       2.65350537       1.03478003        1 
H       3.40762721       1.50975398      -0.28443558        1 
H      -3.48361725       1.06733093       0.19138350        1 
H      -3.12538545       1.22305227      -1.52558906        1 
H      -3.32293146       2.67337024      -0.52800165        1 
