30
Lattice="0.0 0.0 0.0 0.0 0.0 0.0 0.0 0.0 0.0" Properties=species:S:1:pos:R:3:Z:I:1 pbc="F F F"
C       0.24101673      -0.72710882       0.10806527        6 
C      -0.98099139      -0.04817804      -0.00593398        6 
C       1.49814088       0.06125753       0.33158675        6 
C      -1.02366315       1.43598842       0.19603370        6 
O       2.34232099      -0.05566900      -0.70980883        8 
O       1.74378635       0.69748422       1.32789662        8 
O      -0.21597496       2.07435297      -0.67635394        8 
O      -1.66529980       1.99512198       1.04997872        8 
C      -0.05419938       3.48947453      -0.46252285        6 
C       3.58786820       0.65691665      -0.59072675        6 
C       0.29852578      -2.12820471       0.03508335        6 
C      -0.90003500      -2.81526653      -0.15813659        6 
C      -2.11041555      -2.14237077      -0.28443369        6 
C      -2.18265068      -0.75221571      -0.19571327        6 
H      -1.01692258       3.99884074      -0.52011475        1 
H       3.40113946       1.72302980      -0.45493626        1 
H      -3.02203850      -2.70920253      -0.44222649        1 
H       0.39348610       3.66781439       0.51640936        1 
H       0.60703999       3.82755500      -1.25723897        1 
H       4.11573235       0.47464408      -1.52400131        1 
H       4.16343672       0.28273492       0.25749924        1 
H      -0.88499269      -3.89892911      -0.21101958        1 
C      -3.51634709      -0.05242981      -0.30043443        6 
C       1.59917300      -2.88344437       0.16885313        6 
H       2.20881906      -2.77815592      -0.73251265        1 
H       1.41047539      -3.94601480       0.33181970        1 
H       2.19311337      -2.51594824       1.00981811        1 
H      -3.48471549       0.77848767      -1.01029492        1 
H      -3.81530308       0.36376097       0.66449835        1 
H      -4.28802513      -0.74970360      -0.63155877        1 
