30
Lattice="0.0 0.0 0.0 0.0 0.0 0.0 0.0 0.0 0.0" Properties=species:S:1:pos:R:3:Z:I:1 pbc="F F F"
C       0.98985144      -0.25060791       0.04704869        6 
C      -0.01806142       0.73800390       0.06602322        6 
C       0.64213614      -1.70579954      -0.01304268        6 
C      -1.46180472       0.41826432       0.36048740        6 
O      -0.68972465      -1.92052763      -0.03589211        8 
O       1.43534445      -2.61652823      -0.09731681        8 
O      -2.22673437       0.51790876      -0.74367526        8 
O      -1.89244037       0.18236735       1.46114191        8 
C      -3.63284665       0.27469163      -0.55687109        6 
C      -1.12254642      -3.28845344      -0.09117797        6 
C       2.34937314       0.13324721      -0.03901343        6 
C       2.63475386       1.49882532      -0.10961553        6 
C       1.63425036       2.46027012      -0.11424452        6 
C       0.29002002       2.10255838      -0.02036247        6 
H      -3.79623243      -0.73302047      -0.17164703        1 
H      -0.79514504      -3.75496886      -1.02159792        1 
H       1.90055172       3.50996901      -0.17964829        1 
H      -4.05798483       0.99720628       0.14192040        1 
H      -4.08037085       0.38552237      -1.54209166        1 
H      -2.20863359      -3.24775389      -0.04294718        1 
H      -0.72287596      -3.84955960       0.75436776        1 
H       3.67122950       1.81207077      -0.16797719        1 
C      -0.79011796       3.15968278       0.00658797        6 
C       3.50665715      -0.83660504      -0.06380306        6 
H       3.49886571      -1.50023313       0.80200627        1 
H       4.44766832      -0.28294253      -0.07386371        1 
H       3.47148533      -1.48352096      -0.94216509        1 
H      -1.43012981       3.05167877       0.88689212        1 
H      -1.43128881       3.08995193      -0.87582289        1 
H      -0.35090685       4.15811400       0.03189396        1 
