30
Lattice="0.0 0.0 0.0 0.0 0.0 0.0 0.0 0.0 0.0" Properties=species:S:1:pos:R:3:Z:I:1 pbc="F F F"
C       0.65232787       0.44852348      -0.12784585        6 
C      -0.72220373       0.45495135       0.14358960        6 
C       1.35871711      -0.87595022      -0.12534326        6 
C      -1.48605673      -0.83495849       0.28696527        6 
O       2.37859806      -0.88643605       0.75610657        8 
O       1.05923973      -1.83029720      -0.80248647        8 
O      -1.86854087      -1.30403198      -0.90943246        8 
O      -1.79963342      -1.33145590       1.34272243        8 
C      -2.58677429      -2.55247637      -0.90278853        6 
C       3.11245049      -2.12253720       0.85416787        6 
C       1.35174998       1.65149885      -0.31798167        6 
C       0.62422478       2.83952473      -0.23745463        6 
C      -0.73740398       2.84259973       0.05099855        6 
C      -1.44099434       1.65387995       0.24177016        6 
H      -1.95285526      -3.34479338      -0.50245581        1 
H       2.45515159      -2.92666267       1.18820566        1 
H      -1.26864620       3.78635066       0.11591555        1 
H      -3.49307799      -2.47098894      -0.30071820        1 
H      -2.83000731      -2.74929372      -1.94423024        1 
H       3.89334552      -1.93621772       1.58773565        1 
H       3.54398614      -2.38896212      -0.11191061        1 
H       1.13575047       3.78208638      -0.40067831        1 
C      -2.92257132       1.65417417       0.53396902        6 
C       2.82983203       1.68097727      -0.62392506        6 
H       3.42138668       1.50445123       0.27768222        1 
H       3.11392969       2.65056577      -1.03692769        1 
H       3.10690848       0.91242887      -1.34980980        1 
H      -3.13210713       1.20908378       1.51031122        1 
H      -3.47284023       1.07356097      -0.21285956        1 
H      -3.31904945       2.67050880       0.52835742        1 
