30
Lattice="0.0 0.0 0.0 0.0 0.0 0.0 0.0 0.0 0.0" Properties=species:S:1:pos:R:3:Z:I:1 pbc="F F F"
C       0.11338359      -0.70967410       0.05022225        6 
C      -1.00765871       0.15070274       0.04242544        6 
C       1.49266946      -0.20199037       0.37613167        6 
C      -0.83377832       1.63510003       0.00970136        6 
O       2.33553076      -0.35222223      -0.66223544        8 
O       1.82125500       0.21779031       1.45789727        8 
O       0.42141160       1.98991676      -0.33939088        8 
O      -1.70944760       2.45192188       0.18369588        8 
C       0.70192620       3.39813485      -0.36118950        6 
C       3.69893536       0.04008257      -0.42406476        6 
C      -0.03510898      -2.10079451      -0.05478122        6 
C      -1.32815956      -2.61080046      -0.17915485        6 
C      -2.43424381      -1.77546342      -0.17763680        6 
C      -2.31133719      -0.38792750      -0.06827303        6 
H       0.05586280       3.90419202      -1.07986905        1 
H       3.75073211       1.10149475      -0.17650249        1 
H      -3.42558401      -2.20620861      -0.26620375        1 
H       0.55036062       3.83029525       0.62891755        1 
H       1.74506263       3.47956353      -0.65877424        1 
H       4.22584589      -0.16272577      -1.35380656        1 
H       4.12596483      -0.53956456       0.39597352        1 
H      -1.46812452      -3.68348796      -0.26418359        1 
C      -3.57646294       0.43653253      -0.09070766        6 
C       1.14300733      -3.04672647      -0.01431370        6 
H       1.76617282      -2.94059738      -0.90525536        1 
H       0.79827017      -4.08055069       0.04185942        1 
H       1.77987090      -2.86099078       0.85526902        1 
H      -3.57860003       1.15899123      -0.90949699        1 
H      -3.69507050       1.01576519       0.82596959        1 
H      -4.43980644      -0.22212311      -0.20607226        1 
