30
Lattice="0.0 0.0 0.0 0.0 0.0 0.0 0.0 0.0 0.0" Properties=species:S:1:pos:R:3:Z:I:1 pbc="F F F"
C       0.04961357      -0.83269610      -0.11307409        6 
C      -0.88257899       0.20749099      -0.04972440        6 
C       1.50666254      -0.54665737      -0.34600956        6 
C      -0.46546850       1.61741874      -0.35715877        6 
O       2.15404791      -0.34736351       0.81699636        8 
O       2.04690841      -0.54670909      -1.42464908        8 
O       0.18344074       2.18622263       0.67689431        8 
O      -0.67151326       2.17151907      -1.40804136        8 
C       0.65253927       3.53195371       0.46014757        6 
C       3.56905302      -0.09760017       0.71497552        6 
C      -0.34936938      -2.17019791       0.04564976        6 
C      -1.70102415      -2.42228100       0.27614667        6 
C      -2.62873050      -1.38750347       0.34284137        6 
C      -2.24534033      -0.05888525       0.16623887        6 
H       1.33161198       3.56485548      -0.39308714        1 
H       4.07480971      -0.95183631       0.26160507        1 
H      -3.67331968      -1.61651784       0.52580418        1 
H      -0.18794993       4.20225560       0.27367020        1 
H       1.16830403       3.80835632       1.37674468        1 
H       3.90937115       0.05397123       1.73661421        1 
H       3.75619410       0.79066714       0.10963312        1 
H      -2.03287602      -3.44706065       0.40578842        1 
C      -3.26812598       1.05084255       0.19491587        6 
C       0.64592449      -3.30176339      -0.03992716        6 
H       1.10684761      -3.34698817      -1.03070115        1 
H       0.15948964      -4.25968183       0.15100666        1 
H       1.45095437      -3.18266468       0.69149935        1 
H      -3.38759769       1.49901816      -0.79525859        1 
H      -2.97465261       1.85009237       0.88172170        1 
H      -4.23950123       0.67196812       0.51709144        1 
