30
Lattice="0.0 0.0 0.0 0.0 0.0 0.0 0.0 0.0 0.0" Properties=species:S:1:pos:R:3:Z:I:1 pbc="F F F"
C       0.73057581       0.47463366      -0.12792005        6 
C      -0.65379313       0.44910401       0.09704772        6 
C       1.47131542      -0.82350196      -0.30893778        6 
C      -1.31635544      -0.89430585       0.14413999        6 
O       2.11727680      -1.18075516       0.80979684        8 
O       1.51504083      -1.43880407      -1.34707006        8 
O      -2.44424079      -0.93262988      -0.59024955        8 
O      -0.89153419      -1.84804016       0.75465722        8 
C      -3.14600911      -2.19131450      -0.60369076        6 
C       2.77071648      -2.46541292       0.77368331        6 
C       1.43189519       1.68146127      -0.22063958        6 
C       0.70383728       2.86153253      -0.06321642        6 
C      -0.66453339       2.84055235       0.18686290        6 
C      -1.37844914       1.64275398       0.26082755        6 
H      -2.51215333      -2.97312510      -1.02403183        1 
H       2.03693193      -3.24549212       0.56713800        1 
H      -1.19429233       3.77689641       0.32657293        1 
H      -3.44307505      -2.47332449       0.40769341        1 
H      -4.01952195      -2.02647823      -1.23035933        1 
H       3.20220868      -2.59651199       1.76310568        1 
H       3.54685824      -2.48052601       0.00676104        1 
H       1.21979526       3.81356324      -0.13000528        1 
C      -2.86545988       1.67366413       0.52920438        6 
C       2.91712521       1.69959449      -0.48433119        6 
H       3.46622831       1.22399961       0.33334243        1 
H       3.28199610       2.72219167      -0.59002395        1 
H       3.16161988       1.15556304      -1.40144093        1 
H      -3.17028161       0.90229631       1.23956811        1 
H      -3.43404335       1.50431246      -0.38873590        1 
H      -3.15494215       2.64347922       0.93813047        1 
