30
Lattice="0.0 0.0 0.0 0.0 0.0 0.0 0.0 0.0 0.0" Properties=species:S:1:pos:R:3:Z:I:1 pbc="F F F"
C       0.67890766       0.46515252       0.00446527        6 
C      -0.72541610       0.45134146      -0.11584118        6 
C       1.35021294      -0.87099394      -0.05126928        6 
C      -1.49719085      -0.82844331      -0.32563095        6 
O       2.69279775      -0.81395116      -0.14673797        8 
O       0.75561195      -1.92674776      -0.03665786        8 
O      -1.90427049      -1.34872274       0.84545749        8 
O      -1.82182809      -1.24954602      -1.40809983        8 
C      -2.61495550      -2.59778558       0.75771153        6 
C       3.36648420      -2.08351986      -0.23452230        6 
C       1.35747710       1.69508121       0.17073522        6 
C       0.58417984       2.85848852       0.20020107        6 
C      -0.79791872       2.83164894       0.06676407        6 
C      -1.48278530       1.62829810      -0.09283042        6 
H      -3.52033101      -2.48505578       0.15892279        1 
H       3.18218055      -2.67620075       0.66275938        1 
H      -1.35700823       3.76120915       0.09176772        1 
H      -1.97244330      -3.35613233       0.30790476        1 
H      -2.86257243      -2.86287550       1.78326255        1 
H       4.42305348      -1.84140208      -0.32556867        1 
H       3.01962885      -2.63797892      -1.10732122        1 
H       1.08411185       3.81163914       0.33226479        1 
C      -2.98688190       1.60152629      -0.23635288        6 
C       2.85254564       1.84075522       0.33341722        6 
H       3.23361702       1.23049250       1.15369129        1 
H       3.09883324       2.88461054       0.53486032        1 
H       3.38567892       1.52526814      -0.56509384        1 
H      -3.44919081       1.00064145       0.55216498        1 
H      -3.28407501       1.16542322      -1.19372658        1 
H      -3.39779061       2.61030828      -0.17731824        1 
