30
Lattice="0.0 0.0 0.0 0.0 0.0 0.0 0.0 0.0 0.0" Properties=species:S:1:pos:R:3:Z:I:1 pbc="F F F"
C       0.68730228       0.40907947      -0.03234979        6 
C      -0.72226690       0.36875865       0.12863406        6 
C       1.53019408      -0.77336987       0.37663878        6 
C      -1.37094477      -0.98002757      -0.04567768        6 
O       2.38773558      -1.14776138      -0.59542655        8 
O       1.43382398      -1.33241535       1.43762607        8 
O      -2.68078864      -0.88755118      -0.37217061        8 
O      -0.81612845      -2.04891792       0.04318129        8 
C      -3.36277504      -2.13583209      -0.58460967        6 
C       3.19537550      -2.30290054      -0.29954684        6 
C       1.35731174       1.62592057      -0.22595372        6 
C       0.59553946       2.79759763      -0.23478776        6 
C      -0.76930365       2.76839936      -0.00248972        6 
C      -1.46597487       1.56672710       0.16535764        6 
H      -2.92934150      -2.66803220      -1.43279629        1 
H       3.81840662      -2.12201047       0.57791630        1 
H      -1.32162569       3.70094709       0.03935695        1 
H      -3.29587987      -2.76482420       0.30389495        1 
H      -4.39689077      -1.86624105      -0.78995889        1 
H       3.81172802      -2.45918950      -1.18226673        1 
H       2.55669993      -3.16780800      -0.11498627        1 
H       1.09259839       3.75048527      -0.38198426        1 
C      -2.95888833       1.65993015       0.39805021        6 
C       2.85927555       1.71208763      -0.37243761        6 
H       3.37472761       1.17974919       0.43105080        1 
H       3.18360107       2.75362770      -0.34644664        1 
H       3.19044881       1.26767542      -1.31336557        1 
H      -3.30409709       0.95513054       1.15386641        1 
H      -3.52047066       1.44773490      -0.51432494        1 
H      -3.20971192       2.67056216       0.72758880        1 
