30
Lattice="0.0 0.0 0.0 0.0 0.0 0.0 0.0 0.0 0.0" Properties=species:S:1:pos:R:3:Z:I:1 pbc="F F F"
C       0.26140943      -0.69745368      -0.05550008        6 
C      -0.99443484      -0.06258577      -0.01478396        6 
C       1.48345385       0.12554483      -0.33711926        6 
C      -1.08895995       1.42817759      -0.11201730        6 
O       2.43836876      -0.05450006       0.59374641        8 
O       1.61021748       0.85028136      -1.29503959        8 
O      -0.18982604       2.03169945       0.69386456        8 
O      -1.88357450       2.02957202      -0.79300852        8 
C      -0.09340803       3.46162203       0.56660277        6 
C       3.66093268       0.67715599       0.38577890        6 
C       0.36600543      -2.09579030       0.02746715        6 
C      -0.81562101      -2.82504112       0.17350948        6 
C      -2.05358573      -2.19887959       0.22897445        6 
C      -2.17689706      -0.81185953       0.12641786        6 
H       0.23537188       3.72223346      -0.44077037        1 
H       4.12326851       0.38754308      -0.55915575        1 
H      -2.94962968      -2.79912078       0.34654431        1 
H      -1.05708652       3.93089337       0.76796502        1 
H       0.64523323       3.76823352       1.30389791        1 
H       4.30133332       0.41507667       1.22482754        1 
H       3.46179147       1.74959634       0.37300212        1 
H      -0.76300836      -3.90705370       0.23474596        1 
C      -3.54932592      -0.18351170       0.17713455        6 
C       1.68610943      -2.82436088      -0.06841663        6 
H       2.28792870      -2.46241151      -0.90585955        1 
H       1.51834161      -3.89282830      -0.21488927        1 
H       2.28046781      -2.69058688       0.83858139        1 
H      -3.82143647       0.24245060      -0.79055236        1 
H      -3.60057211       0.63053385       0.90411669        1 
H      -4.29457287      -0.93217321       0.45216740        1 
