30
Lattice="0.0 0.0 0.0 0.0 0.0 0.0 0.0 0.0 0.0" Properties=species:S:1:pos:R:3:Z:I:1 pbc="F F F"
C       0.70415655       0.47951089       0.14233385        6 
C      -0.66937367       0.46844761      -0.12113397        6 
C       1.40116072      -0.84436110       0.27430910        6 
C      -1.36177081      -0.85869907      -0.25199392        6 
O       2.24082826      -1.06625855      -0.75006800        8 
O       1.22977578      -1.61748400       1.18674133        8 
O      -2.21572016      -1.07340384       0.76250965        8 
O      -1.19551546      -1.62932855      -1.16757834        8 
C      -2.92721975      -2.32712126       0.73549522        6 
C       2.90177996      -2.34777504      -0.75719570        6 
C       1.40579659       1.68447069       0.27372240        6 
C       0.67892392       2.86819465       0.13806761        6 
C      -0.68670811       2.85658715      -0.13523611        6 
C      -1.39333817       1.66017407      -0.26261773        6 
H      -3.51594838      -2.41297811      -0.17921402        1 
H       3.48417922      -2.48470827       0.15500312        1 
H      -1.21677835       3.79662213      -0.24718243        1 
H      -2.22375981      -3.15858212       0.79358944        1 
H      -3.57326619      -2.30992343       1.61010252        1 
H       3.54865265      -2.33300161      -1.63116904        1 
H       2.16267624      -3.14586891      -0.84004627        1 
H       1.19314306       3.81757818       0.24392371        1 
C      -2.87644676       1.65144846      -0.54684588        6 
C       2.88747350       1.69861909       0.55660619        6 
H       3.13856415       1.04272873       1.39538999        1 
H       3.22729075       2.70547005       0.80404916        1 
H       3.45264701       1.34761983      -0.31095391        1 
H      -3.43949459       1.30910418       0.32558113        1 
H      -3.12089797       0.97969640      -1.37501234        1 
H      -3.22752341       2.65030229      -0.81103468        1 
