30
Lattice="0.0 0.0 0.0 0.0 0.0 0.0 0.0 0.0 0.0" Properties=species:S:1:pos:R:3:Z:I:1 pbc="F F F"
C       0.86794871      -0.47409879       0.00081945        6 
C       0.18786426       0.75705370      -0.11910444        6 
C       0.13243710      -1.77622293      -0.06157760        6 
C      -1.31109094       0.86155697      -0.23567620        6 
O      -1.18535061      -1.61658927      -0.30469302        8 
O       0.63045788      -2.87367633       0.05294168        8 
O      -1.89656042       0.78992738       0.97657065        8 
O      -1.90436521       1.09829551      -1.25788216        8 
C      -3.33219460       0.88165034       0.98346724        6 
C      -1.97378352      -2.81278405      -0.40714223        6 
C       2.27821087      -0.48829717       0.12729201        6 
C       2.94094800       0.74088539       0.13183704        6 
C       2.26073781       1.94437253       0.00801590        6 
C       0.87323045       1.97897044      -0.12210791        6 
H      -3.66047390       1.82656779       0.54790755        1 
H      -1.58505628      -3.46058361      -1.19370586        1 
H       2.81589394       2.87638862       0.01567642        1 
H      -3.76500622       0.05630643       0.41510510        1 
H      -3.62244795       0.81877294       2.02991667        1 
H      -2.97785583      -2.47385832      -0.65304512        1 
H      -1.96909880      -3.35391347       0.54039932        1 
H       4.02057991       0.74952478       0.23191521        1 
C       0.14017827       3.29286713      -0.25695518        6 
C       3.10804190      -1.74408585       0.25029200        6 
H       2.81454249      -2.34150127       1.11470266        1 
H       4.16259285      -1.47833273       0.34618541        1 
H       2.98807022      -2.39325226      -0.61915467        1 
H      -0.62225355       3.40480332       0.51975282        1 
H      -0.36732298       3.36274857      -1.22206353        1 
H       0.83272717       4.13126709      -0.16954137        1 
