30
Lattice="0.0 0.0 0.0 0.0 0.0 0.0 0.0 0.0 0.0" Properties=species:S:1:pos:R:3:Z:I:1 pbc="F F F"
C       0.71041396       0.44518086       0.02487981        6 
C      -0.69590859       0.44699591      -0.05867883        6 
C       1.36639300      -0.89247567       0.18510984        6 
C      -1.42274952      -0.84434004      -0.32599061        6 
O       2.59209474      -0.95809468      -0.36787434        8 
O       0.84028827      -1.83783248       0.72648069        8 
O      -2.31702927      -1.12899827       0.63617624        8 
O      -1.24936932      -1.52256325      -1.30899590        8 
C      -3.04663541      -2.35963549       0.46801131        6 
C       3.25088338      -2.23582854      -0.27667334        6 
C       1.41861396       1.65767089       0.11931730        6 
C       0.67474139       2.84174185       0.10124561        6 
C      -0.70936859       2.83653287      -0.00360176        6 
C      -1.42656192       1.64122001      -0.08864904        6 
H      -3.60794470      -2.34791362      -0.46767914        1 
H       3.39310308      -2.51915997       0.76729458        1 
H      -1.24769684       3.77825748      -0.02580193        1 
H      -2.35716408      -3.20483252       0.46651579        1 
H      -3.72021172      -2.41469649       1.32033314        1 
H       4.20900246      -2.10152641      -0.77364104        1 
H       2.65889126      -3.00179183      -0.77920801        1 
H       1.19776136       3.78867373       0.17897944        1 
C      -2.93153245       1.66131405      -0.22786801        6 
C       2.91954081       1.74366546       0.26689615        6 
H       3.28568536       1.11765105       1.08362312        1 
H       3.21536126       2.77440821       0.46923995        1 
H       3.42618667       1.40809585      -0.63965571        1 
H      -3.41584211       1.27581966       0.67238646        1 
H      -3.26804032       1.04299308      -1.06489959        1 
H      -3.28609323       2.67874171      -0.40088427        1 
