30
Lattice="0.0 0.0 0.0 0.0 0.0 0.0 0.0 0.0 0.0" Properties=species:S:1:pos:R:3:Z:I:1 pbc="F F F"
C       0.99962975      -0.08901870      -0.11383692        6 
C      -0.19490684       0.66849070       0.03013404        6 
C       0.98500659      -1.57971099       0.09731350        6 
C      -1.50423082       0.09016771      -0.43981996        6 
O      -0.25350021      -2.08221437       0.26557945        8 
O       1.97141120      -2.26071340       0.27367770        8 
O      -2.52281434       0.36168090       0.40432651        8 
O      -1.63635387      -0.55710480      -1.44780324        8 
C      -3.81194957      -0.14209207       0.01263762        6 
C      -0.34142258      -3.48363866       0.56294884        6 
C       2.25215159       0.55795313      -0.12512904        6 
C       2.27062468       1.94585880       0.05310328        6 
C       1.11113377       2.66888904       0.26814190        6 
C      -0.14688929       2.05788776       0.23344235        6 
H      -4.11296942       0.27588821      -0.94953696        1 
H       0.11423419      -4.07352447      -0.23359745        1 
H       1.17220455       3.74039237       0.42552010        1 
H      -3.78652987      -1.23021224      -0.06398173        1 
H      -4.49678678       0.17134059       0.79778164        1 
H      -1.40659929      -3.69473188       0.63083461        1 
H       0.15719756      -3.70880935       1.50724063        1 
H       3.22477712       2.46096328       0.03770965        1 
C      -1.37887013       2.92923633       0.35285314        6 
C       3.57558637      -0.14589509      -0.31035892        6 
H       3.86276427      -0.70011391       0.58543842        1 
H       4.35018269       0.59290067      -0.52769656        1 
H       3.54319887      -0.87224306      -1.12241084        1 
H      -1.95690396       2.68710995       1.24610708        1 
H      -2.04807466       2.80609619      -0.50245151        1 
H      -1.08892743       3.98008035       0.40140637        1 
