30
Lattice="0.0 0.0 0.0 0.0 0.0 0.0 0.0 0.0 0.0" Properties=species:S:1:pos:R:3:Z:I:1 pbc="F F F"
C       0.62738719       0.46529805       0.15140517        6 
C      -0.74870735       0.45011782      -0.11121384        6 
C       1.38021650      -0.83623656       0.16330203        6 
C      -1.50175482      -0.84446021      -0.25921757        6 
O       2.28792362      -0.86751302      -0.83520202        8 
O       1.21003094      -1.74966161       0.93277185        8 
O      -1.70930310      -1.43014084       0.92761852        8 
O      -1.94447196      -1.25917978      -1.30503032        8 
C      -2.40405201      -2.69235973       0.90274570        6 
C       3.07040874      -2.07303266      -0.93990449        6 
C       1.31311195       1.67836148       0.32150166        6 
C       0.57171645       2.85720596       0.24051699        6 
C      -0.79205533       2.84050089      -0.03690739        6 
C      -1.48065077       1.64206568      -0.22089395        6 
H      -3.38836007      -2.57888948       0.44604163        1 
H       3.65447462      -2.22928413      -0.03139177        1 
H      -1.33607824       3.77672586      -0.10410527        1 
H      -1.82559738      -3.42733139       0.34130497        1 
H      -2.49104674      -2.99174668       1.94433089        1 
H       3.72316918      -1.91891469      -1.79592151        1 
H       2.42042473      -2.93407801      -1.10181440        1 
H       1.07343705       3.80704015       0.39193658        1 
C      -2.96167312       1.63032033      -0.51706521        6 
C       2.79680834       1.72045240       0.59605563        6 
H       3.09276907       0.96611656       1.33003205        1 
H       3.08747891       2.69804561       0.98441906        1 
H       3.36844763       1.52951552      -0.31590160        1 
H      -3.50912178       1.02019232       0.20819712        1 
H      -3.16133458       1.21022994      -1.50603255        1 
H      -3.37027704       2.64117243      -0.48143489        1 
