30
Lattice="0.0 0.0 0.0 0.0 0.0 0.0 0.0 0.0 0.0" Properties=species:S:1:pos:R:3:Z:I:1 pbc="F F F"
C      -0.05529869      -0.75575137      -0.11582693        6 
C      -0.88546790       0.36543401       0.09378878        6 
C       1.44643354      -0.66815790      -0.16952966        6 
C      -0.38784414       1.74593952      -0.21668207        6 
O       1.94845191      -0.42092038       1.05387410        8 
O       2.12550873      -0.96515615      -1.12319563        8 
O       0.89714689       1.94748995       0.13334156        8 
O      -1.04176214       2.57980391      -0.79962286        8 
C       1.47850526       3.19345451      -0.29097839        6 
C       3.38178936      -0.37135571       1.14551593        6 
C      -0.58688911      -2.05716685      -0.12953272        6 
C      -1.95283437      -2.20559292       0.11050353        6 
C      -2.76529952      -1.10914908       0.36360384        6 
C      -2.26622090       0.19295907       0.33098292        6 
H       1.42030438       3.29032789      -1.37594340        1 
H       3.82109806      -1.32025543       0.83369566        1 
H      -3.81848537      -1.26315237       0.57320458        1 
H       0.96138706       4.03357043       0.17453548        1 
H       2.51487634       3.15297402       0.03697162        1 
H       3.59790232      -0.17240632       2.19275747        1 
H       3.77332798       0.42844202       0.51434646        1 
H      -2.38177389      -3.20218774       0.11764357        1 
C      -3.22390350       1.33977599       0.55260770        6 
C       0.27419362      -3.27648861      -0.36448812        6 
H       0.72003114      -3.26101813      -1.36107648        1 
H      -0.32106241      -4.18571052      -0.26495469        1 
H       1.09580915      -3.33354239       0.35542940        1 
H      -3.50704137       1.80108997      -0.39594691        1 
H      -2.79155591       2.12871548       1.16976010        1 
H      -4.12829293       0.97586437       1.04480942        1 
