30
Lattice="0.0 0.0 0.0 0.0 0.0 0.0 0.0 0.0 0.0" Properties=species:S:1:pos:R:3:Z:I:1 pbc="F F F"
C       0.32658897      -0.61988625      -0.05146681        6 
C      -1.01589279      -0.17088757      -0.11661992        6 
C       1.49902294       0.25826692      -0.40651756        6 
C      -1.36118781       1.28002515       0.06123799        6 
O       2.36407472       0.36558590       0.62355354        8 
O       1.66307075       0.78326112      -1.47695183        8 
O      -0.32778474       2.10844038      -0.16564176        8 
O      -2.43261224       1.68376338       0.45677808        8 
C      -0.56410893       3.50490441       0.07326455        6 
C       3.55768745       1.12678495       0.36378368        6 
C       0.62213615      -1.99055249       0.06488075        6 
C      -0.44043458      -2.89399894       0.09922412        6 
C      -1.75219480      -2.46359357      -0.01034963        6 
C      -2.07571919      -1.10820401      -0.10068285        6 
H      -1.38189969       3.86578055      -0.55174093        1 
H       4.12779321       0.67618347      -0.45051742        1 
H      -2.55406977      -3.19406150      -0.01397388        1 
H      -0.81111177       3.67685694       1.12226769        1 
H       0.36722371       4.00056079      -0.19152725        1 
H       4.12613542       1.09968716       1.29068261        1 
H       3.30385841       2.15377052       0.09683772        1 
H      -0.23148109      -3.95516727       0.18415393        1 
C      -3.54128650      -0.74572746      -0.17937017        6 
C       2.03960520      -2.51670463       0.10319410        6 
H       2.63195394      -2.14268837      -0.73669472        1 
H       2.04027309      -3.60661233       0.04836390        1 
H       2.54996315      -2.21768967       1.02084570        1 
H      -3.74129662       0.01126669      -0.93805923        1 
H      -3.89949224      -0.33661339       0.76722383        1 
H      -4.12315220      -1.63942190      -0.41567561        1 
