30
Lattice="0.0 0.0 0.0 0.0 0.0 0.0 0.0 0.0 0.0" Properties=species:S:1:pos:R:3:Z:I:1 pbc="F F F"
C       0.86541179      -0.44467464      -0.02528606        6 
C       0.16093320       0.76850051       0.13577072        6 
C       0.16817885      -1.76555683       0.08244935        6 
C      -1.34194567       0.84082977       0.20952039        6 
O      -1.16331366      -1.64122046       0.26618596        8 
O       0.70848826      -2.84883458       0.06517250        8 
O      -1.88703157       0.70796089      -1.01667463        8 
O      -1.97163746       1.12306492       1.19842232        8 
C      -3.32260338       0.76386254      -1.07266998        6 
C      -1.90622922      -2.85868163       0.43951072        6 
C       2.27193517      -0.42560606      -0.18422266        6 
C       2.90814197       0.81766030      -0.17150855        6 
C       2.20657134       2.00149219       0.00719573        6 
C       0.82071515       2.00437663       0.16243834        6 
H      -3.75425868      -0.04592837      -0.48143205        1 
H      -1.85262107      -3.46819707      -0.46396388        1 
H       2.74249783       2.94468284       0.01678805        1 
H      -3.68766956       1.71897683      -0.69190157        1 
H      -3.57739229       0.64675536      -2.12377197        1 
H      -2.92981894      -2.54502714       0.63261126        1 
H      -1.51411157      -3.42862311       1.28247812        1 
H       3.98423060       0.85334094      -0.29974727        1 
C       0.06619084       3.30177476       0.33521406        6 
C       3.12423652      -1.65940191      -0.36479826        6 
H       3.08889960      -2.30289555       0.51606956        1 
H       4.16030959      -1.36614394      -0.54507703        1 
H       2.78080138      -2.27216924      -1.19950048        1 
H      -0.43974888       3.33748282       1.30248957        1 
H      -0.70128029       3.42274046      -0.43532888        1 
H       0.74577453       4.15248318       0.26670064        1 
