30
Lattice="0.0 0.0 0.0 0.0 0.0 0.0 0.0 0.0 0.0" Properties=species:S:1:pos:R:3:Z:I:1 pbc="F F F"
C      -0.11163313      -0.73353233       0.10832629        6 
C      -0.93098965       0.41611595       0.07099681        6 
C       1.37775042      -0.68824919       0.33606948        6 
C      -0.33859504       1.78776024       0.00007900        6 
O       2.04705209      -0.74480839      -0.83256507        8 
O       1.90509361      -0.67612771       1.41837556        8 
O       0.95962306       1.81025972       0.35982914        8 
O      -0.92455023       2.78357406      -0.36103018        8 
C       1.63112642       3.07574464       0.26208931        6 
C       3.48316464      -0.74346760      -0.73383603        6 
C      -0.66340775      -2.02316367       0.04298859        6 
C      -2.04891208      -2.14045081      -0.04847846        6 
C      -2.86370413      -1.01786634      -0.05941730        6 
C      -2.33847408       0.27410342      -0.01031487        6 
H       1.60953927       3.44138294      -0.76576885        1 
H       3.82665114       0.16492346      -0.23673033        1 
H      -3.93955863      -1.14236387      -0.11421220        1 
H       1.15700093       3.80943972       0.91530994        1 
H       2.65248004       2.88333684       0.58313560        1 
H       3.84429717      -0.78041864      -1.75918626        1 
H       3.82895910      -1.61250216      -0.17181530        1 
H      -2.49571419      -3.12797064      -0.10034498        1 
C      -3.31054763       1.43017255      -0.04231012        6 
C       0.20368816      -3.25971911       0.08759108        6 
H       0.92689794      -3.26996441      -0.73249044        1 
H      -0.40780141      -4.15988494       0.00776233        1 
H       0.76589063      -3.31612563       1.02395333        1 
H      -3.23238995       1.99045817      -0.97550194        1 
H      -3.12464239       2.14443382       0.76100512        1 
H      -4.33014440       1.05157731       0.05627558        1 
