30
Lattice="0.0 0.0 0.0 0.0 0.0 0.0 0.0 0.0 0.0" Properties=species:S:1:pos:R:3:Z:I:1 pbc="F F F"
C      -0.65022380      -0.64020875      -0.02122748        6 
C      -0.48685436       0.74896485       0.06550209        6 
C       0.54474334      -1.53097370      -0.18546366        6 
C       0.88773345       1.33042608       0.23334234        6 
O       1.40663648      -1.40590817       0.84267031        8 
O       0.73214689      -2.25822755      -1.13036628        8 
O       1.59132129       1.24172039      -0.91357745        8 
O       1.32924739       1.77375306       1.26296283        8 
C       2.96268578       1.67765562      -0.85023653        6 
C       2.61710867      -2.18022096       0.75122898        6 
C      -1.93358169      -1.21402996      -0.08566726        6 
C      -3.02933226      -0.35362648      -0.03916080        6 
C      -2.86594770       1.02569920       0.04409697        6 
C      -1.59922582       1.60454295       0.10757449        6 
H       3.01601794       2.73463531      -0.58539327        1 
H       2.38520766      -3.24595004       0.72444893        1 
H      -3.74179133       1.66559109       0.06699509        1 
H       3.50938593       1.09360767      -0.10805754        1 
H       3.36502050       1.50976972      -1.84647379        1 
H       3.18493693      -1.93288653       1.64515545        1 
H       3.17369046      -1.91383923      -0.14877451        1 
H      -4.03022303      -0.77080609      -0.07325669        1 
C      -1.43498636       3.09974253       0.22440716        6 
C      -2.13970909      -2.70576234      -0.20051443        6 
H      -1.83063923      -3.07044281      -1.18292808        1 
H      -3.19136542      -2.95891507      -0.05341544        1 
H      -1.55508257      -3.25438948       0.54303891        1 
H      -0.78659572       3.49387137      -0.56383847        1 
H      -0.98343168       3.36979136       1.18240269        1 
H      -2.40050059       3.60212755       0.14576198        1 
