30
Lattice="0.0 0.0 0.0 0.0 0.0 0.0 0.0 0.0 0.0" Properties=species:S:1:pos:R:3:Z:I:1 pbc="F F F"
C       0.96557528       0.20386578       0.01317927        6 
C      -0.34768322       0.68377841       0.11033318        6 
C       1.22692488      -1.26156660       0.21159651        6 
C      -1.45244438      -0.30979138       0.31919155        6 
O       0.62999670      -1.99768461      -0.74970138        8 
O       1.85259565      -1.73018871       1.12816672        8 
O      -2.40229177      -0.20664098      -0.63078714        8 
O      -1.50096600      -1.10846562       1.22424134        8 
C      -3.51916421      -1.10702227      -0.50807966        6 
C       0.65820243      -3.42570820      -0.55688203        6 
C       2.04658237       1.07641296      -0.17211199        6 
C       1.76248348       2.43898871      -0.26798052        6 
C       0.46052952       2.91821722      -0.15759269        6 
C      -0.62294279       2.05797802       0.02641897        6 
H      -3.17957103      -2.14239569      -0.56119636        1 
H       1.68598219      -3.78349761      -0.48606649        1 
H       0.28010189       3.98635253      -0.21526660        1 
H      -4.03757549      -0.94758933       0.43886425        1 
H      -4.17095640      -0.87393575      -1.34706277        1 
H       0.16408108      -3.84526460      -1.43047962        1 
H       0.11860383      -3.68427760       0.35580313        1 
H       2.57689517       3.13924419      -0.41963068        1 
C      -2.02397056       2.61011160       0.14615934        6 
C       3.46190004       0.56136102      -0.26241276        6 
H       3.78040131       0.13200905       0.69051487        1 
H       4.14997833       1.36440815      -0.53081835        1 
H       3.55285827      -0.22741097      -1.01504951        1 
H      -2.56910417       2.15520070       0.97745715        1 
H      -2.60171312       2.41832465      -0.76150374        1 
H      -1.99614970       3.68811901       0.31425088        1 
