30
Lattice="0.0 0.0 0.0 0.0 0.0 0.0 0.0 0.0 0.0" Properties=species:S:1:pos:R:3:Z:I:1 pbc="F F F"
C       0.60568507       0.40387350      -0.11111900        6 
C      -0.77340467       0.40412605       0.18708234        6 
C       1.37012480      -0.88668179       0.03528657        6 
C      -1.59475525      -0.85805051       0.23125909        6 
O       2.50148239      -0.68820605       0.75071805        8 
O       1.04236206      -1.97875669      -0.35919138        8 
O      -1.56828113      -1.48702173      -0.95191468        8 
O      -2.33833735      -1.16405989       1.13510382        8 
C      -2.31645980      -2.71233434      -1.04057046        6 
C       3.30767462      -1.85747243       0.98377091        6 
C       1.28092061       1.60898346      -0.37648964        6 
C       0.54236814       2.79216284      -0.32025897        6 
C      -0.80191645       2.79477543       0.02656659        6 
C      -1.49280986       1.60842046       0.27830138        6 
H      -1.91388638      -3.44717036      -0.34176974        1 
H       2.74199383      -2.60472678       1.54217693        1 
H      -1.33884590       3.73601954       0.07795836        1 
H      -3.37051637      -2.53797441      -0.81864888        1 
H      -2.18741472      -3.05328598      -2.06506047        1 
H       4.15935150      -1.50863851       1.56350819        1 
H       3.63613777      -2.29113414       0.03773549        1 
H       1.03534327       3.73150869      -0.54662443        1 
C      -2.97065137       1.65133542       0.59313933        6 
C       2.74405897       1.67467804      -0.74861586        6 
H       3.37742045       1.65027423       0.14088089        1 
H       2.94887312       2.59952335      -1.29165192        1 
H       3.04313512       0.83764860      -1.38192370        1 
H      -3.17407131       1.27254650       1.59621670        1 
H      -3.54897869       1.03322159      -0.09957219        1 
H      -3.34095416       2.67512910       0.52168735        1 
