30
Lattice="0.0 0.0 0.0 0.0 0.0 0.0 0.0 0.0 0.0" Properties=species:S:1:pos:R:3:Z:I:1 pbc="F F F"
C       0.70767110       0.31809178       0.09438493        6 
C      -0.70984321       0.31530033      -0.12973891        6 
C       1.46693624      -0.89498972      -0.39126241        6 
C      -1.43246094      -0.95404148       0.26699906        6 
O       2.72390892      -0.97527002       0.10309851        8 
O       1.00706450      -1.74798512      -1.10736365        8 
O      -2.77553292      -0.87235622       0.11326502        8 
O      -0.90758998      -1.95947611       0.67597031        8 
C      -3.51629519      -2.04841884       0.48015519        6 
C       3.47146215      -2.13611304      -0.30085750        6 
C       1.39155526       1.53049328       0.29357611        6 
C       0.65157895       2.72038144       0.21277280        6 
C      -0.68455442       2.72005276      -0.12683548        6 
C      -1.40969547       1.52760103      -0.27587132        6 
H      -3.19703029      -2.90247313      -0.11879885        1 
H       2.95893747      -3.04489490       0.01788197        1 
H      -1.20439948       3.66480877      -0.24364028        1 
H      -3.37138456      -2.28013223       1.53653881        1 
H      -4.55813015      -1.80545499       0.28011904        1 
H       4.43696855      -2.04388425       0.19216119        1 
H       3.59267684      -2.15773384      -1.38512442        1 
H       1.16079521       3.66488531       0.37039139        1 
C      -2.88773034       1.67103170      -0.57393136        6 
C       2.87567668       1.66253077       0.55775025        6 
H       3.19075434       1.04429965       1.39785542        1 
H       3.11276113       2.70456813       0.77981833        1 
H       3.47254822       1.35214613      -0.30234308        1 
H      -3.50123833       1.46400724       0.30562258        1 
H      -3.21612622       0.98745743      -1.35526380        1 
H      -3.08893384       2.69479463      -0.89674415        1 
