30
Lattice="0.0 0.0 0.0 0.0 0.0 0.0 0.0 0.0 0.0" Properties=species:S:1:pos:R:3:Z:I:1 pbc="F F F"
C       0.90069426       0.29681571       0.13606048        6 
C      -0.48306219       0.55317853      -0.02865340        6 
C       1.42514652      -1.11339152       0.10659381        6 
C      -1.40308424      -0.58634379       0.30204037        6 
O       0.97748915      -1.76276363      -0.98987795        8 
O       2.27088717      -1.55741742       0.84438743        8 
O      -2.69498498      -0.35183528      -0.00626911        8 
O      -1.04384302      -1.63861137       0.78145304        8 
C      -3.61724939      -1.41475532       0.29438880        6 
C       1.31454462      -3.15741888      -1.07118817        6 
C       1.84757383       1.32877181       0.11875493        6 
C       1.37336368       2.62956093      -0.07542302        6 
C       0.02536735       2.88728731      -0.26503782        6 
C      -0.93956784       1.87358741      -0.23224296        6 
H      -3.36287999      -2.31120648      -0.27295917        1 
H       2.39502681      -3.30036295      -1.02809616        1 
H      -0.29973202       3.90943768      -0.42450619        1 
H      -3.59876176      -1.64824525       1.35979628        1 
H      -4.59442673      -1.03810644      -0.00068107        1 
H       0.91989544      -3.49669902      -2.02674108        1 
H       0.84033908      -3.69616534      -0.24844336        1 
H       2.08101822       3.45144383      -0.09578250        1 
C      -2.38570855       2.28448214      -0.39810599        6 
C       3.32882877       1.08129882       0.27132498        6 
H       3.55840579       0.66126377       1.25182334        1 
H       3.88291945       2.01308888       0.14645903        1 
H       3.69577894       0.36402601      -0.46753928        1 
H      -2.97777694       2.05416451       0.48996820        1 
H      -2.86098377       1.76642545      -1.23192949        1 
H      -2.44226799       3.35960206      -0.57797686        1 
