30
Lattice="0.0 0.0 0.0 0.0 0.0 0.0 0.0 0.0 0.0" Properties=species:S:1:pos:R:3:Z:I:1 pbc="F F F"
C       0.70293029       0.45108326      -0.04679816        6 
C      -0.69577857       0.45436177       0.09335585        6 
C       1.36149495      -0.88818703      -0.17486367        6 
C      -1.42164391      -0.84428347       0.32319175        6 
O       2.54452990      -0.96033656       0.46230180        8 
O       0.87385598      -1.82313874      -0.76782055        8 
O      -2.26123894      -1.13134150      -0.68538164        8 
O      -1.29891652      -1.52020217       1.31565633        8 
C      -2.98378073      -2.37210243      -0.56668671        6 
C       3.20985020      -2.23691456       0.40241868        6 
C       1.41009122       1.66025242      -0.17134678        6 
C       0.67050380       2.84537354      -0.13121644        6 
C      -0.70950755       2.84249270       0.03162937        6 
C      -1.42430196       1.64892211       0.14524898        6 
H      -2.28447529      -3.20864692      -0.53662232        1 
H       2.58368211      -3.00967896       0.85007593        1 
H      -1.24556664       3.78502313       0.06998120        1 
H      -3.59405923      -2.37584274       0.33785335        1 
H      -3.61017042      -2.42704483      -1.45421325        1 
H       4.12872869      -2.10923599       0.97015379        1 
H       3.42840913      -2.50558859      -0.63219561        1 
H       1.19133232       3.79114189      -0.23474896        1 
C      -2.92456312       1.65987320       0.32412947        6 
C       2.90518265       1.72767051      -0.37402422        6 
H       3.43917540       1.42950079       0.53029158        1 
H       3.20313799       2.74465896      -0.63463306        1 
H       3.23755560       1.06147545      -1.17368095        1 
H      -3.23391335       1.03688563       1.16834124        1 
H      -3.42828166       1.27293336      -0.56533160        1 
H      -3.28328498       2.67390267       0.50801419        1 
