30
Lattice="0.0 0.0 0.0 0.0 0.0 0.0 0.0 0.0 0.0" Properties=species:S:1:pos:R:3:Z:I:1 pbc="F F F"
C       0.67813057       0.47165404      -0.13329571        6 
C      -0.69192105       0.47084694       0.14449860        6 
C       1.37606448      -0.85549669      -0.21012938        6 
C      -1.41462037      -0.84090821       0.29056565        6 
O       2.26312120      -1.00482941       0.78953813        8 
O       1.17127934      -1.69380334      -1.05562195        8 
O      -2.02320542      -1.18900375      -0.85337956        8 
O      -1.48401969      -1.47577530       1.31591248        8 
C      -2.72926299      -2.44588852      -0.84139792        6 
C       2.95987701      -2.26685332       0.83052225        6 
C       1.38002639       1.67381084      -0.30001230        6 
C       0.65483490       2.86104220      -0.19221372        6 
C      -0.70868479       2.85817271       0.09305894        6 
C      -1.41320456       1.66610923       0.26047112        6 
H      -2.03033465      -3.26439252      -0.66447491        1 
H       2.24778548      -3.08474756       0.94756320        1 
H      -1.23899296       3.80089442       0.17810610        1 
H      -3.49643379      -2.44710981      -0.06550230        1 
H      -3.17702804      -2.53277123      -1.82852547        1 
H       3.61757557      -2.20415687       1.69413781        1 
H       3.53482908      -2.41589219      -0.08477764        1 
H       1.16792195       3.80666184      -0.33150636        1 
C      -2.89550709       1.65558530       0.54605489        6 
C       2.85889801       1.68384161      -0.59866943        6 
H       3.43626927       1.38408134       0.27984580        1 
H       3.18676124       2.67913821      -0.90274382        1 
H       3.10730378       0.98687377      -1.40435979        1 
H      -3.12174958       1.08639000       1.45238867        1 
H      -3.45025325       1.19403809      -0.27656557        1 
H      -3.27446437       2.66977062       0.68128382        1 
