30
Lattice="0.0 0.0 0.0 0.0 0.0 0.0 0.0 0.0 0.0" Properties=species:S:1:pos:R:3:Z:I:1 pbc="F F F"
C       0.90332566       0.43119149       0.00263222        6 
C      -0.49423010       0.54870857      -0.10618831        6 
C       1.55964962      -0.90378811       0.21653985        6 
C      -1.40292989      -0.63598815      -0.31932320        6 
O       1.15653635      -1.83015429      -0.66404192        8 
O       2.36603711      -1.12336971       1.09176454        8 
O      -2.15426174      -0.86548829       0.78191521        8 
O      -1.47551179      -1.29828405      -1.32104422        8 
C      -3.11830664      -1.93151876       0.67595832        6 
C       1.65985757      -3.16485583      -0.47534519        6 
C       1.71219360       1.58225576       0.06882570        6 
C       1.08536402       2.82566346      -0.00490081        6 
C      -0.29692221       2.93937999      -0.09601629        6 
C      -1.11317826       1.81097426      -0.14342003        6 
H      -3.83454015      -1.71845502      -0.11947358        1 
H       2.74466225      -3.18465067      -0.58973631        1 
H      -0.75086453       3.92359341      -0.14063459        1 
H      -2.61946161      -2.87822592       0.46413203        1 
H      -3.61676202      -1.96758955       1.64197543        1 
H       1.17953049      -3.76053340      -1.24808344        1 
H       1.39646242      -3.53315447       0.51753643        1 
H       1.69387592       3.72320926       0.01669015        1 
C      -2.61411495       1.95326910      -0.25286311        6 
C       3.21492018       1.51015734       0.19881472        6 
H       3.50756324       1.20685455       1.20594702        1 
H       3.65673374       2.48471655      -0.01606454        1 
H       3.64901459       0.78060805      -0.48900617        1 
H      -3.10901754       1.60789769       0.65842385        1 
H      -3.01512650       1.36594312      -1.08439030        1 
H      -2.89108989       2.99559099      -0.41766525        1 
