30
Lattice="0.0 0.0 0.0 0.0 0.0 0.0 0.0 0.0 0.0" Properties=species:S:1:pos:R:3:Z:I:1 pbc="F F F"
C       1.00777733      -0.16666188      -0.08796989        6 
C      -0.09885870       0.71310471      -0.02157315        6 
C       0.81474752      -1.64882839       0.04690426        6 
C      -1.48426301       0.26057093      -0.40616153        6 
O      -0.48438584      -2.00195845       0.12222635        8 
O       1.70272318      -2.45867225       0.19636263        8 
O      -2.36712494       0.42064642       0.59991593        8 
O      -1.77722181      -0.16270414      -1.49557415        8 
C      -3.72706863       0.05395478       0.30479847        6 
C      -0.76204716      -3.39716338       0.31696118        6 
C       2.32173236       0.35049127      -0.04343356        6 
C       2.47277287       1.73399609       0.08872707        6 
C       1.38278114       2.58377242       0.19521213        6 
C       0.07642467       2.09662931       0.12315633        6 
H      -4.11721666       0.65683628      -0.51698104        1 
H      -0.36443866      -3.98525903      -0.51130671        1 
H       1.54380073       3.65058039       0.30902507        1 
H      -3.78564137      -1.00105919       0.03259569        1 
H      -4.28430161       0.24541859       1.21929126        1 
H      -1.84693669      -3.47147251       0.35040636        1 
H      -0.32278929      -3.74854501       1.25192762        1 
H       3.47479768       2.14726884       0.11756782        1 
C      -1.09169306       3.05675318       0.15460139        6 
C       3.57025267      -0.49472310      -0.12495116        6 
H       3.69465665      -1.11232398       0.76679586        1 
H       4.44313032       0.15322706      -0.22867901        1 
H       3.54083056      -1.18476267      -0.96896065        1 
H      -1.70721597       2.90489163       1.04380217        1 
H      -1.74142665       2.92525184      -0.71574687        1 
H      -0.73688578       4.08841534       0.15120487        1 
