30
Lattice="0.0 0.0 0.0 0.0 0.0 0.0 0.0 0.0 0.0" Properties=species:S:1:pos:R:3:Z:I:1 pbc="F F F"
C       0.92061903       0.30022495      -0.02655394        6 
C      -0.44308724       0.62905308      -0.09312410        6 
C       1.35717545      -1.12481887      -0.22164171        6 
C      -1.41982174      -0.49208914      -0.28265110        6 
O       0.96005345      -1.90607735       0.80321034        8 
O       1.97852059      -1.52193495      -1.17392288        8 
O      -2.48375460      -0.38486393       0.53800820        8 
O      -1.28099282      -1.40180061      -1.06638003        8 
C      -3.48371763      -1.41335452       0.41206749        6 
C       1.17390509      -3.32102978       0.63072207        6 
C       1.90105048       1.28543031       0.14460516        6 
C       1.47270193       2.60914586       0.24432181        6 
C       0.12518309       2.94187153       0.15346630        6 
C      -0.86284188       1.96894320      -0.00874946        6 
H      -3.88094205      -1.43777571      -0.60392057        1 
H       0.59932989      -3.67670938      -0.22616123        1 
H      -0.17076751       3.98402505       0.20938499        1 
H      -3.05783783      -2.38822770       0.65364251        1 
H      -4.26179244      -1.14752392       1.12410718        1 
H       0.82062061      -3.78125942       1.55087576        1 
H       2.23186837      -3.53489105       0.47401301        1 
H       2.20857538       3.39399846       0.38257242        1 
C      -2.31126453       2.38821896      -0.11450733        6 
C       3.36609801       0.92953221       0.21305028        6 
H       3.55244943       0.14268770       0.94979328        1 
H       3.96349130       1.79926125       0.49081146        1 
H       3.72149300       0.55677318      -0.75078675        1 
H      -2.86266507       2.13889979       0.79468173        1 
H      -2.82044407       1.89047075      -0.94338013        1 
H      -2.37996544       3.46550485      -0.27589256        1 
