30
Lattice="0.0 0.0 0.0 0.0 0.0 0.0 0.0 0.0 0.0" Properties=species:S:1:pos:R:3:Z:I:1 pbc="F F F"
C       0.73889590      -0.62731964      -0.00475217        6 
C       0.38215902       0.73149000       0.10819239        6 
C      -0.30569419      -1.69827376       0.00037598        6 
C      -1.05396169       1.16871500       0.21165240        6 
O      -1.42309042      -1.31633732       0.65530663        8 
O      -0.18122396      -2.80221293      -0.47826194        8 
O      -1.68777635       1.02834647      -0.97186850        8 
O      -1.56355864       1.63866575       1.19695512        8 
C      -3.08763808       1.36289538      -0.97654230        6 
C      -2.51101982      -2.25465657       0.67022980        6 
C       2.09802144      -0.99904987      -0.09847443        6 
C       3.04926114       0.02281783      -0.07973382        6 
C       2.68755447       1.36019328       0.01919303        6 
C       1.35001190       1.74359736       0.11737722        6 
H      -3.63227733       0.70691340      -0.29481615        1 
H      -2.85650307      -2.45247359      -0.34623509        1 
H       3.45818774       2.12386204       0.02117261        1 
H      -3.23805317       2.39957889      -0.67244073        1 
H      -3.41922601       1.21002013      -2.00114940        1 
H      -3.29246234      -1.77836729       1.25840917        1 
H      -2.20066822      -3.19264179       1.13221267        1 
H       4.09919137      -0.24106855      -0.14412899        1 
C       0.96686886       3.20004950       0.22741444        6 
C       2.56936691      -2.43063967      -0.19915835        6 
H       2.13459503      -3.05950613       0.58032972        1 
H       3.65663104      -2.46901855      -0.10930628        1 
H       2.27838466      -2.87867073      -1.15070666        1 
H       0.51505577       3.41465434       1.19880721        1 
H       0.23518215       3.48003870      -0.53645574        1 
H       1.84249193       3.83893993       0.10371654        1 
