30
Lattice="0.0 0.0 0.0 0.0 0.0 0.0 0.0 0.0 0.0" Properties=species:S:1:pos:R:3:Z:I:1 pbc="F F F"
C       0.68395835       0.33891954      -0.09349662        6 
C      -0.72471452       0.28543269       0.14605672        6 
C       1.54391628      -0.81132321       0.36790218        6 
C      -1.41674077      -1.03805262      -0.11688714        6 
O       2.66690064      -0.95791083      -0.37549825        8 
O       1.25101029      -1.57013605       1.25421348        8 
O      -2.70474163      -0.84411713      -0.50178698        8 
O      -0.93345559      -2.14056547      -0.09072973        8 
C      -3.44242714      -2.03124192      -0.83441629        6 
C       3.50724711      -2.06753443      -0.01206885        6 
C       1.30700515       1.57873815      -0.33710803        6 
C       0.51913990       2.73556536      -0.27432190        6 
C      -0.81197085       2.68579710       0.09065577        6 
C      -1.47337957       1.46781473       0.28662108        6 
H      -2.98603423      -2.53984545      -1.68516989        1 
H       3.85972767      -1.96395187       1.01547483        1 
H      -1.36911762       3.60941145       0.20617114        1 
H      -3.47451338      -2.71656325       0.01404547        1 
H      -4.44299122      -1.68549404      -1.08739632        1 
H       4.34219070      -2.03775209      -0.70913386        1 
H       2.95675229      -3.00460434      -0.10748167        1 
H       0.98545291       3.69701447      -0.45979688        1 
C      -2.93809220       1.53381323       0.66596239        6 
C       2.78413494       1.75661483      -0.61396161        6 
H       3.40232493       1.39720334       0.21153967        1 
H       3.00278248       2.81503201      -0.76500147        1 
H       3.09374676       1.20505762      -1.50185350        1 
H      -3.23209170       0.72229358       1.32950442        1 
H      -3.58189247       1.48037492      -0.21449023        1 
H      -3.13208553       2.48185126       1.17358025        1 
