30
Lattice="0.0 0.0 0.0 0.0 0.0 0.0 0.0 0.0 0.0" Properties=species:S:1:pos:R:3:Z:I:1 pbc="F F F"
C       0.75653967       0.48151913       0.12285468        6 
C      -0.61607814       0.46939408      -0.14518666        6 
C       1.49428478      -0.81985118       0.27994964        6 
C      -1.33909631      -0.84797308      -0.19696303        6 
O       1.84120992      -1.32685714      -0.91177023        8 
O       1.77054410      -1.32737402       1.34101351        8 
O      -2.18949852      -0.96806094       0.84191735        8 
O      -1.20507871      -1.69190413      -1.04937851        8 
C      -2.96814482      -2.18021083       0.88779363        6 
C       2.47872692      -2.61935060      -0.89415550        6 
C       1.46028915       1.68680334       0.24128401        6 
C       0.74341174       2.87101595       0.07014347        6 
C      -0.62132661       2.85992488      -0.20728495        6 
C      -1.33370793       1.66477514      -0.30492404        6 
H      -3.60014155      -2.26049151       0.00160274        1 
H       3.39147687      -2.58840708      -0.29775191        1 
H      -1.14601345       3.79956830      -0.34456593        1 
H      -2.31344862      -3.05072783       0.94336181        1 
H      -3.57466530      -2.09838645       1.78669168        1 
H       2.70097382      -2.84383684      -1.93451408        1 
H       1.79703085      -3.36387872      -0.48036835        1 
H       1.26439738       3.81918804       0.14991414        1 
C      -2.81944984       1.66437181      -0.57705568        6 
C       2.93900967       1.69177897       0.53911986        6 
H       3.14640996       1.21970637       1.50335574        1 
H       3.32831475       2.71045343       0.56546027        1 
H       3.49606717       1.13650842      -0.22192766        1 
H      -3.38110636       1.40664150       0.32499510        1 
H      -3.08756013       0.93529138      -1.34696925        1 
H      -3.15083532       2.64705512      -0.91685050        1 
