30
Lattice="0.0 0.0 0.0 0.0 0.0 0.0 0.0 0.0 0.0" Properties=species:S:1:pos:R:3:Z:I:1 pbc="F F F"
C       0.74592637       0.45843762       0.06442908        6 
C      -0.66520871       0.47402068       0.05769732        6 
C       1.51235330      -0.81300118       0.33602420        6 
C      -1.33630449      -0.86490186       0.04389239        6 
O       1.95077040      -1.37991922      -0.80143566        8 
O       1.75435417      -1.22189730       1.44334443        8 
O      -2.67613695      -0.80703911      -0.09690077        8 
O      -0.75173591      -1.92153384       0.13839274        8 
C      -3.36229698      -2.07156864      -0.12568280        6 
C       2.58525445      -2.66428972      -0.65102909        6 
C       1.49620338       1.63474730      -0.03573551        6 
C       0.80095809       2.83903033      -0.13591726        6 
C      -0.58692681       2.86994638      -0.11668285        6 
C      -1.35625149       1.70685143      -0.02734409        6 
H      -3.03005597      -2.66676954      -0.97746354        1 
H       3.47621071      -2.58429299      -0.02633533        1 
H      -1.09469409       3.82612293      -0.17729102        1 
H      -3.17871437      -2.62815891       0.79430593        1 
H      -4.41711263      -1.82219143      -0.22069236        1 
H       2.84903849      -2.97700667      -1.65901909        1 
H       1.88333404      -3.36690108      -0.19958285        1 
H       1.35561115       3.76791481      -0.21767000        1 
C      -2.86027480       1.86417870      -0.02197158        6 
C       3.00557014       1.60262647      -0.02158868        6 
H       3.37994314       1.13825724       0.89509708        1 
H       3.41487670       2.61179251      -0.08321030        1 
H       3.39528648       1.02360076      -0.86328219        1 
H      -3.31774925       1.37382772       0.83828977        1 
H      -3.31607954       1.42369734      -0.91081721        1 
H      -3.11747553       2.92480351       0.00682386        1 
