30
Lattice="0.0 0.0 0.0 0.0 0.0 0.0 0.0 0.0 0.0" Properties=species:S:1:pos:R:3:Z:I:1 pbc="F F F"
C       0.71838084       0.42370120       0.02237581        6 
C      -0.69722509       0.42235798       0.00291464        6 
C       1.38785925      -0.89547513      -0.23826840        6 
C      -1.41485064      -0.85940176       0.33514215        6 
O       2.63630801      -0.97390907       0.26384214        8 
O       0.85568034      -1.82037551      -0.80592343        8 
O      -2.47444291      -1.07904393      -0.46684354        8 
O      -1.07897570      -1.61192110       1.21631186        8 
C      -3.20179411      -2.29753942      -0.22449358        6 
C       3.30374745      -2.23597026       0.07833894        6 
C       1.42912123       1.63773578      -0.00834011        6 
C       0.68440342       2.82330654      -0.02770058        6 
C      -0.70037623       2.81679981      -0.04085675        6 
C      -1.42552169       1.62095429      -0.01141414        6 
H      -2.54610515      -3.15912771      -0.35662108        1 
H       2.73863094      -3.03570811       0.55891986        1 
H      -1.23862512       3.75856358      -0.05629932        1 
H      -3.60883517      -2.30655489       0.78811276        1 
H      -4.00300185      -2.30682985      -0.96030083        1 
H       4.27866402      -2.11770243       0.54606825        1 
H       3.40996636      -2.46087544      -0.98408764        1 
H       1.21100373       3.77110518      -0.04877844        1 
C      -2.93635537       1.67835233       0.04270124        6 
C       2.93611797       1.74097097      -0.05334481        6 
H       3.39140003       1.32323634       0.84563207        1 
H       3.23302557       2.78759006      -0.14038083        1 
H       3.35628553       1.19557915      -0.90105446        1 
H      -3.33585335       1.09659670       0.87719466        1 
H      -3.38360522       1.27589158      -0.86798913        1 
H      -3.26788018       2.71100151       0.16425390        1 
