30
Lattice="0.0 0.0 0.0 0.0 0.0 0.0 0.0 0.0 0.0" Properties=species:S:1:pos:R:3:Z:I:1 pbc="F F F"
C       0.77207196       0.44859879      -0.06788982        6 
C      -0.62462572       0.50524225      -0.16095594        6 
C       1.49595659      -0.83968498      -0.35690320        6 
C      -1.39190336      -0.77871301      -0.29984334        6 
O       1.76453020      -1.51834966       0.77956675        8 
O       1.76612357      -1.23973565      -1.45826760        8 
O      -2.25841637      -0.93360580       0.72621946        8 
O      -1.26820479      -1.58491037      -1.18794074        8 
C      -3.07888351      -2.11648455       0.68667900        6 
C       2.39702639      -2.80326232       0.60660555        6 
C       1.52980252       1.60557354       0.15711577        6 
C       0.84651165       2.81552048       0.27509114        6 
C      -0.53920790       2.87680913       0.16027847        6 
C      -1.30530810       1.72892549      -0.04192005        6 
H      -3.69588368      -2.12393507      -0.21349106        1 
H       1.76293773      -3.45554486       0.00428374        1 
H      -1.03795306       3.83726255       0.23437335        1 
H      -2.45773649      -3.01313386       0.70179237        1 
H      -3.70056040      -2.06577248       1.57781157        1 
H       2.51941742      -3.20232892       1.61097651        1 
H       3.36494623      -2.69013126       0.11605570        1 
H       1.40946111       3.72741338       0.44402198        1 
C      -2.81016815       1.82334135      -0.14047226        6 
C       3.03407287       1.53459624       0.24826487        6 
H       3.34875343       0.88262594       1.06838224        1 
H       3.46272865       2.52322962       0.41845948        1 
H       3.46475367       1.13281719      -0.67376690        1 
H      -3.28524345       1.49507299       0.78736651        1 
H      -3.20389750       1.19733753      -0.94520228        1 
H      -3.11600044       2.85254552      -0.33698169        1 
