30
Lattice="0.0 0.0 0.0 0.0 0.0 0.0 0.0 0.0 0.0" Properties=species:S:1:pos:R:3:Z:I:1 pbc="F F F"
C       0.32652726      -0.68828212       0.09641786        6 
C      -0.96259131      -0.13860595       0.01032251        6 
C       1.48639549       0.23296961       0.32567506        6 
C      -1.16342856       1.33614601       0.19308836        6 
O       2.42867120       0.09363865      -0.62604843        8 
O       1.58212079       0.99911153       1.25448756        8 
O      -0.48005785       2.04223526      -0.73105120        8 
O      -1.83946852       1.83484444       1.05749536        8 
C      -0.49339605       3.47245636      -0.56102655        6 
C       3.59935073       0.91773953      -0.47716522        6 
C       0.52397137      -2.07721941       0.01198413        6 
C      -0.60266464      -2.88042219      -0.16983908        6 
C      -1.87676920      -2.33451987      -0.27046011        6 
C      -2.08904918      -0.95949767      -0.16825334        6 
H      -1.51748989       3.84751294      -0.55726000        1 
H       3.32519392       1.97336369      -0.49996421        1 
H      -2.72830497      -2.99063034      -0.41735819        1 
H      -0.00536682       3.73698645       0.37840608        1 
H       0.05940618       3.86991391      -1.40925530        1 
H       4.23729342       0.66873655      -1.32210957        1 
H       4.10384657       0.69888364       0.46535005        1 
H      -0.47837645      -3.95659947      -0.22978740        1 
C      -3.48898272      -0.39882862      -0.24534043        6 
C       1.88725818      -2.71603880       0.13358461        6 
H       2.47365049      -2.57307326      -0.77750405        1 
H       1.78761117      -3.78819512       0.31224862        1 
H       2.46182543      -2.29120643       0.96031975        1 
H      -3.56045406       0.41811720      -0.96838543        1 
H      -3.80247881       0.00128643       0.72156702        1 
H      -4.19423014      -1.17611951      -0.54502374        1 
