30
Lattice="0.0 0.0 0.0 0.0 0.0 0.0 0.0 0.0 0.0" Properties=species:S:1:pos:R:3:Z:I:1 pbc="F F F"
C       0.18771750      -0.70760458      -0.04823602        6 
C      -1.00839177       0.03934713      -0.02718418        6 
C       1.49276677      -0.02944623      -0.35534695        6 
C      -0.97042627       1.53321999      -0.06295934        6 
O       2.39486541      -0.21142279       0.62627205        8 
O       1.72249543       0.57098201      -1.37692778        8 
O       0.12144616       2.01798431       0.56713856        8 
O      -1.82659819       2.24431660      -0.53392121        8 
C       0.31297621       3.44076639       0.49476236        6 
C       3.68958147       0.37538062       0.40143361        6 
C       0.16913554      -2.10832987       0.04027153        6 
C      -1.07227915      -2.73284360       0.17463612        6 
C      -2.25067058      -2.00168679       0.20751617        6 
C      -2.25456340      -0.60890312       0.10186521        6 
H       0.42227854       3.75225886      -0.54517603        1 
H       4.15013337      -0.04570451      -0.49377756        1 
H      -3.19618142      -2.52210961       0.31618744        1 
H      -0.53232624       3.96381485       0.94385744        1 
H       1.22618610       3.63759298       1.05219881        1 
H       4.27493199       0.13399057       1.28581218        1 
H       3.59817343       1.45597485       0.28294901        1 
H      -1.11507851      -3.81489254       0.24306583        1 
C      -3.57807133       0.11731524       0.14664561        6 
C       1.42420962      -2.94624346      -0.03382787        6 
H       2.04819113      -2.66646384      -0.88717793        1 
H       1.16990033      -4.00218699      -0.14091720        1 
H       2.03287722      -2.82898072       0.86571669        1 
H      -3.81025590       0.57610755      -0.81612064        1 
H      -3.57902432       0.92523773       0.88125767        1 
H      -4.37634800      -0.58216053       0.40250169        1 
