30
Lattice="0.0 0.0 0.0 0.0 0.0 0.0 0.0 0.0 0.0" Properties=species:S:1:pos:R:3:Z:I:1 pbc="F F F"
C      -0.56266573      -0.68408811      -0.05090832        6 
C      -0.57607298       0.71653277       0.03931948        6 
C       0.73652853      -1.42308377      -0.17055372        6 
C       0.71623846       1.46589883       0.15403208        6 
O       1.52250970      -1.20421593       0.90357008        8 
O       1.05217295      -2.12124095      -1.10196297        8 
O       1.51030974       1.22107997      -0.90888062        8 
O       1.02956100       2.17403978       1.07857648        8 
C       2.82796996       1.79776046      -0.86475731        6 
C       2.82405131      -1.81859052       0.87058696        6 
C      -1.76089238      -1.41697161      -0.10184259        6 
C      -2.95775868      -0.70369025      -0.04143159        6 
C      -2.97167174       0.68366368       0.04978288        6 
C      -1.78953652       1.42223976       0.10102917        6 
H       2.76828476       2.88658680      -0.83227569        1 
H       2.73199089      -2.90469684       0.82316277        1 
H      -3.92187920       1.20576937       0.08514030        1 
H       3.36690129       1.44133474       0.01471234        1 
H       3.31748986       1.46730533      -1.77800130        1 
H       3.30963694      -1.51466540       1.79500293        1 
H       3.38704756      -1.46903860       0.00364068        1 
H      -3.89676054      -1.24649019      -0.06927301        1 
C      -1.83701066       2.92648068       0.21632739        6 
C      -1.78063748      -2.92361455      -0.21440958        6 
H      -1.41458742      -3.25049311      -1.19036435        1 
H      -2.79639146      -3.30034106      -0.08210258        1 
H      -1.14671337      -3.39622848       0.54095185        1 
H      -1.21132077       3.41044887      -0.53839347        1 
H      -1.47525734       3.25623494       1.19292412        1 
H      -2.85935612       3.28564255       0.08626324        1 
