30
Lattice="0.0 0.0 0.0 0.0 0.0 0.0 0.0 0.0 0.0" Properties=species:S:1:pos:R:3:Z:I:1 pbc="F F F"
C      -0.38650830      -0.71356269      -0.11517994        6 
C      -0.68619450       0.65796417       0.04494737        6 
C       1.02711701      -1.22334969      -0.13162329        6 
C       0.39148185       1.68940539      -0.04790158        6 
O       1.64349726      -0.97227981       1.04302532        8 
O       1.52122470      -1.86888836      -1.02238474        8 
O       1.47467331       1.22221196      -0.70672595        8 
O       0.30737896       2.83578776       0.32925397        8 
C       2.57744930       2.12992055      -0.85364466        6 
C       3.01024494      -1.41010895       1.13332827        6 
C      -1.40099485      -1.68214781      -0.16960240        6 
C      -2.72116396      -1.24333990      -0.05560424        6 
C      -3.02392912       0.09943125       0.11061071        6 
C      -2.02989406       1.08011817       0.16099260        6 
H       2.26199910       3.03032553      -1.38212157        1 
H       3.08128845      -2.48539058       0.96443188        1 
H      -4.06165455       0.40363901       0.19447607        1 
H       2.97439401       2.40786441       0.12445145        1 
H       3.32083832       1.58597945      -1.43228810        1 
H       3.33044747      -1.15641486       2.14143345        1 
H       3.62084992      -0.88956296       0.39315685        1 
H      -3.52438849      -1.97209898      -0.09005945        1 
C      -2.45801098       2.51969349       0.31515126        6 
C      -1.11152676      -3.15694789      -0.32643305        6 
H      -0.64306504      -3.36849146      -1.28948098        1 
H      -2.03515797      -3.73400206      -0.25463347        1 
H      -0.42914022      -3.52029019       0.44728119        1 
H      -2.06692399       3.15007228      -0.48582523        1 
H      -2.09092311       2.94885793       1.24875464        1 
H      -3.54799844       2.58055277       0.30473724        1 
