30
Lattice="0.0 0.0 0.0 0.0 0.0 0.0 0.0 0.0 0.0" Properties=species:S:1:pos:R:3:Z:I:1 pbc="F F F"
C       0.69110275       0.45412077      -0.00875469        6 
C      -0.71191870       0.45361106       0.11604204        6 
C       1.34779887      -0.89044641      -0.01274652        6 
C      -1.48159398      -0.82334662       0.34751682        6 
O       2.66889976      -0.85790691       0.24749593        8 
O       0.75519833      -1.93003221      -0.20090071        8 
O      -2.02963305      -1.27666463      -0.79238356        8 
O      -1.67385415      -1.30612645       1.43610568        8 
C      -2.75517033      -2.51585392      -0.68795329        6 
C       3.32915299      -2.13717729       0.28577945        6 
C       1.38343684       1.67516352      -0.16993466        6 
C       0.62496283       2.84863793      -0.18393773        6 
C      -0.75678424       2.83630315      -0.04225525        6 
C      -1.45551471       1.63934811       0.10850083        6 
H      -2.08937598      -3.30591049      -0.33809564        1 
H       2.89511161      -2.76442574       1.06543520        1 
H      -1.30496790       3.77256651      -0.05410101        1 
H      -3.59494142      -2.41394809       0.00167550        1 
H      -3.10851108      -2.72951153      -1.69436960        1 
H       4.37124974      -1.91540287       0.50489238        1 
H       3.23581511      -2.64449509      -0.67555695        1 
H       1.13531719       3.79666509      -0.31347285        1 
C      -2.95906530       1.62827405       0.25943998        6 
C       2.87852467       1.79391718      -0.35256096        6 
H       3.41584980       1.49092582       0.54769585        1 
H       3.13985862       2.82832680      -0.58196372        1 
H       3.24150914       1.15934651      -1.16310739        1 
H      -3.25958832       1.14800010       1.19488863        1 
H      -3.43321121       1.07642210      -0.55701255        1 
H      -3.35479740       2.64485413       0.25737898        1 
