30
Lattice="0.0 0.0 0.0 0.0 0.0 0.0 0.0 0.0 0.0" Properties=species:S:1:pos:R:3:Z:I:1 pbc="F F F"
C       0.76576510       0.44412012       0.07519480        6 
C      -0.64373774       0.48954082       0.04045161        6 
C       1.50869404      -0.85044623       0.29562675        6 
C      -1.34671860      -0.83132434       0.09217656        6 
O       1.79230666      -1.45822198      -0.87062488        8 
O       1.87633701      -1.23643985       1.37620630        8 
O      -2.68130604      -0.75108888      -0.08230320        8 
O      -0.78967336      -1.89380025       0.25974864        8 
C      -3.39754653      -1.99879483      -0.05340707        6 
C       2.39687100      -2.76074540      -0.76251271        6 
C       1.54380803       1.60341345      -0.01244030        6 
C       0.87672271       2.82154072      -0.13068206        6 
C      -0.51051953       2.88172546      -0.14578856        6 
C      -1.30682246       1.73668288      -0.06345846        6 
H      -3.05379367      -2.65501967      -0.85428891        1 
H       3.33685745      -2.70574045      -0.21174470        1 
H      -0.99549755       3.84824620      -0.22482602        1 
H      -3.25681734      -2.49941890       0.90553123        1 
H      -4.44234963      -1.73210206      -0.19850655        1 
H       2.56813280      -3.08702652      -1.78605078        1 
H       1.71163664      -3.43856315      -0.25102103        1 
H       1.45265055       3.73805782      -0.20492027        1 
C      -2.80690409       1.92684206      -0.08239639        6 
C       3.05132852       1.53760557       0.02662110        6 
H       3.40193608       1.12906533       0.97817754        1 
H       3.48559944       2.53002299      -0.10151947        1 
H       3.43884471       0.89264078      -0.76724344        1 
H      -3.28404684       1.47822077       0.79034307        1 
H      -3.26297314       1.46416014      -0.95937730        1 
H      -3.04123897       2.99302575      -0.09353481        1 
