30
Lattice="0.0 0.0 0.0 0.0 0.0 0.0 0.0 0.0 0.0" Properties=species:S:1:pos:R:3:Z:I:1 pbc="F F F"
C       0.53662852      -0.57187651       0.08516328        6 
C      -0.85125484      -0.33490042       0.06072283        6 
C       1.42629830       0.61810709       0.25781620        6 
C      -1.41656112       1.04748664       0.24616340        6 
O       2.60193428       0.49034312      -0.38873405        8 
O       1.12802163       1.60895965       0.88432853        8 
O      -1.22178536       1.80510588      -0.84987293        8 
O      -2.01581025       1.40954159       1.22611322        8 
C      -1.64361510       3.17796754      -0.73999508        6 
C       3.50886262       1.60143347      -0.26754388        6 
C       1.03315590      -1.88945163      -0.01850728        6 
C       0.10379056      -2.92102783      -0.16689646        6 
C      -1.26180384      -2.67594935      -0.22205386        6 
C      -1.76977739      -1.38348651      -0.09878424        6 
H      -2.71489959       3.23565881      -0.54105972        1 
H       3.06494548       2.50173113      -0.69494999        1 
H      -1.94901345      -3.50569548      -0.35087538        1 
H      -1.09624655       3.66718130       0.06694031        1 
H      -1.40607103       3.63147579      -1.69967320        1 
H       4.39690150       1.31012497      -0.82407288        1 
H       3.75115121       1.78434102       0.78025805        1 
H       0.46262695      -3.94219661      -0.23878222        1 
C      -3.26094497      -1.14364414      -0.13188189        6 
C       2.49815174      -2.25495676       0.05117302        6 
H       3.02382987      -1.96458372      -0.86051740        1 
H       2.60247114      -3.33362852       0.18159969        1 
H       3.00518188      -1.76131901       0.88229891        1 
H      -3.52906119      -0.36507062      -0.85148428        1 
H      -3.63011067      -0.82151978       0.84502147        1 
H      -3.78841472      -2.05676555      -0.41351924        1 
