30
Lattice="0.0 0.0 0.0 0.0 0.0 0.0 0.0 0.0 0.0" Properties=species:S:1:pos:R:3:Z:I:1 pbc="F F F"
C      -0.24884143      -0.73061805       0.14563203        6 
C      -0.79178048       0.56427836      -0.02175916        6 
C       1.23092486      -1.00533372       0.18315415        6 
C       0.06967102       1.78088209       0.09631965        6 
O       1.77134297      -0.85507933      -1.04373129        8 
O       1.83048846      -1.44431746       1.13258291        8 
O       1.33992839       1.47762121       0.43701498        8 
O      -0.30626891       2.92592960      -0.01797317        8 
C       2.23870731       2.58077234       0.62581461        6 
C       3.17916653      -1.12843669      -1.14422785        6 
C      -1.06883886      -1.86919138       0.18051474        6 
C      -2.44404009      -1.68560795       0.03601142        6 
C      -2.98565312      -0.42251742      -0.14443389        6 
C      -2.19104813       0.72603564      -0.16993384        6 
H       2.37400274       3.12673688      -0.30947153        1 
H       3.74419236      -0.43411449      -0.51957334        1 
H      -4.05854688      -0.31650236      -0.26229802        1 
H       1.85375496       3.26055556       1.38696596        1 
H       3.17597115       2.13393777       0.95013255        1 
H       3.42792713      -0.98733765      -2.19379148        1 
H       3.39602444      -2.15036545      -0.82988719        1 
H      -3.09863708      -2.55081744       0.05349479        1 
C      -2.88683585       2.05496168      -0.34435593        6 
C      -0.50866609      -3.26307169       0.34553518        6 
H       0.26007436      -3.47955732      -0.40190693        1 
H      -1.30028561      -4.00608674       0.23464790        1 
H      -0.04828667      -3.39284268       1.32737107        1 
H      -2.49752483       2.60817260      -1.19962779        1 
H      -2.74575485       2.70029236       0.52504171        1 
H      -3.95670950       1.88925072      -0.48680088        1 
