30
Lattice="0.0 0.0 0.0 0.0 0.0 0.0 0.0 0.0 0.0" Properties=species:S:1:pos:R:3:Z:I:1 pbc="F F F"
C       0.72696386       0.45364691       0.02304584        6 
C      -0.68308732       0.44593169       0.09296162        6 
C       1.52722042      -0.78472734       0.34681748        6 
C      -1.33639085      -0.90260758       0.03088098        6 
O       2.05942117      -1.33932127      -0.75771651        8 
O       1.68712292      -1.20124648       1.46492598        8 
O      -2.65252485      -0.85110817      -0.26433796        8 
O      -0.76242470      -1.95465034       0.19904365        8 
C      -3.32635998      -2.11899034      -0.35830841        6 
C       2.74707458      -2.58936944      -0.55532243        6 
C       1.44729813       1.64466840      -0.12368205        6 
C       0.72545754       2.83644403      -0.18575062        6 
C      -0.65800211       2.84343193      -0.07180156        6 
C      -1.39852895       1.66515745       0.05530219        6 
H      -2.89647485      -2.72086363      -1.16025448        1 
H       3.60627348      -2.45442701       0.10373858        1 
H      -1.18617333       3.79050631      -0.08988169        1 
H      -3.24634535      -2.66571330       0.58220110        1 
H      -4.36439811      -1.87590457      -0.57563468        1 
H       3.06849848      -2.90671898      -1.54495491        1 
H       2.06335812      -3.31797981      -0.11763183        1 
H       1.25773706       3.77496766      -0.29954790        1 
C      -2.90217347       1.79201565       0.16129360        6 
C       2.95602501       1.64412066      -0.18420907        6 
H       3.38456546       1.16108824       0.69896614        1 
H       3.34194522       2.66321379      -0.23203300        1 
H       3.31517692       1.09789647      -1.06015221        1 
H      -3.30616092       1.20070905       0.98369650        1 
H      -3.39880713       1.44636536      -0.74748792        1 
H      -3.16927962       2.83804653       0.32316457        1 
