30
Lattice="0.0 0.0 0.0 0.0 0.0 0.0 0.0 0.0 0.0" Properties=species:S:1:pos:R:3:Z:I:1 pbc="F F F"
C      -0.02044215      -0.76012975       0.14439358        6 
C      -0.89047093       0.32781496      -0.09867500        6 
C       1.47936390      -0.62656368       0.15715333        6 
C      -0.42952635       1.73675210       0.11783132        6 
O       1.93251457      -0.37625587      -1.08663710        8 
O       2.19652495      -0.89645998       1.08972741        8 
O       0.91277032       1.86418686       0.10317159        8 
O      -1.15896864       2.66903670       0.37101647        8 
C       1.43464348       3.15266982       0.46842171        6 
C       3.35875800      -0.27068995      -1.22578573        6 
C      -0.50390142      -2.07705058       0.21176203        6 
C      -1.86796090      -2.28182843       0.00047538        6 
C      -2.71912669      -1.22610468      -0.28835439        6 
C      -2.26723368       0.09418110      -0.32519188        6 
H       1.11742731       3.91011223      -0.24977278        1 
H       3.73148303       0.57349923      -0.64263423        1 
H      -3.76868600      -1.42479341      -0.47649322        1 
H       1.09148171       3.43414080       1.46492442        1 
H       2.51630617       3.03893280       0.45414560        1 
H       3.53524209      -0.10873614      -2.28678580        1 
H       3.84913137      -1.18454811      -0.88712743        1 
H      -2.26294090      -3.29157134       0.04199486        1 
C      -3.27825938       1.17971253      -0.60915450        6 
C       0.40111384      -3.26000346       0.46673366        6 
H       1.21003992      -3.31231794      -0.26777742        1 
H      -0.16571901      -4.19046516       0.40599149        1 
H       0.86644107      -3.20048675       1.45247927        1 
H      -2.91018117       1.90876558      -1.33200774        1 
H      -3.52168474       1.73984032       0.29594388        1 
H      -4.19479178       0.73230217      -1.00010455        1 
