30
Lattice="0.0 0.0 0.0 0.0 0.0 0.0 0.0 0.0 0.0" Properties=species:S:1:pos:R:3:Z:I:1 pbc="F F F"
C       0.52972421      -0.57359414       0.06460540        6 
C      -0.85719690      -0.32183569       0.07387339        6 
C       1.43154076       0.60319345       0.26175699        6 
C      -1.40601222       1.07068357       0.22842523        6 
O       2.63749026       0.44948037      -0.31971717        8 
O       1.11748181       1.60977342       0.85540522        8 
O      -1.16950190       1.81133048      -0.87120443        8 
O      -2.04764462       1.44707967       1.17618435        8 
C      -1.57949775       3.18929977      -0.79273883        6 
C       3.55224175       1.55006582      -0.16704658        6 
C       1.00805538      -1.89756932      -0.05250040        6 
C       0.06257882      -2.91743999      -0.18325049        6 
C      -1.30059950      -2.65754263      -0.20187315        6 
C      -1.79131891      -1.35935847      -0.06584176        6 
H      -2.65457596       3.26122873      -0.62100580        1 
H       3.15012157       2.44595903      -0.64244527        1 
H      -2.00004532      -3.47921776      -0.31563229        1 
H      -1.04640659       3.68542044       0.01964467        1 
H      -1.31359824       3.62562918      -1.75299094        1 
H       4.46869133       1.23294566      -0.65980645        1 
H       3.73095460       1.75459892       0.88942498        1 
H       0.40815484      -3.94223945      -0.26732557        1 
C      -3.28084867      -1.10643493      -0.07219190        6 
C       2.46780026      -2.28895754      -0.01584869        6 
H       2.98785844      -1.97352050      -0.92217928        1 
H       2.55401039      -3.37341487       0.07269982        1 
H       2.99382288      -1.83537612       0.82614007        1 
H      -3.55537125      -0.32546259      -0.78661870        1 
H      -3.62982986      -0.77997849       0.91035855        1 
H      -3.82011281      -2.01542494      -0.34476707        1 
