30
Lattice="0.0 0.0 0.0 0.0 0.0 0.0 0.0 0.0 0.0" Properties=species:S:1:pos:R:3:Z:I:1 pbc="F F F"
C       0.93000140       0.16823542      -0.17577689        6 
C      -0.43099323       0.50685188       0.09436391        6 
C       1.41372998      -1.23664148       0.07061307        6 
C      -1.45137513      -0.50147036      -0.37627017        6 
O       0.63539123      -1.86351046       0.97990590        8 
O       2.49217812      -1.67800632      -0.25725455        8 
O      -2.72765926      -0.08073929      -0.22657133        8 
O      -1.19654005      -1.58078176      -0.85683811        8 
C      -3.74470226      -0.98513395      -0.69063382        6 
C       0.98458857      -3.22134186       1.28167804        6 
C       1.91210862       1.16437238      -0.28767767        6 
C       1.51839305       2.48828603      -0.04428959        6 
C       0.23192874       2.80062827       0.34889986        6 
C      -0.78420164       1.83457789       0.39952831        6 
H      -3.63019248      -1.17609905      -1.75864690        1 
H       0.90287983      -3.83772385       0.38425798        1 
H      -0.01584643       3.82934384       0.58727746        1 
H      -3.69004922      -1.93162698      -0.15100709        1 
H      -4.68842779      -0.48188410      -0.48967308        1 
H       0.26273548      -3.54478810       2.02889930        1 
H       2.00056708      -3.28503929       1.67431232        1 
H       2.25846560       3.27711838      -0.12456546        1 
C      -2.16983789       2.31638487       0.77110936        6 
C       3.36129430       0.89567254      -0.61509350        6 
H       3.85104825       0.31225166       0.16799817        1 
H       3.89201689       1.84287279      -0.72897352        1 
H       3.46503722       0.31690679      -1.53303531        1 
H      -2.66092299       1.64643969       1.47526521        1 
H      -2.82048781       2.38653480      -0.10351208        1 
H      -2.09656050       3.30771744       1.22297959        1 
