30
Lattice="0.0 0.0 0.0 0.0 0.0 0.0 0.0 0.0 0.0" Properties=species:S:1:pos:R:3:Z:I:1 pbc="F F F"
C       0.28778516      -0.67367392      -0.03013762        6 
C      -0.99019024      -0.07350132      -0.05379683        6 
C       1.48212153       0.17160162      -0.36020092        6 
C      -1.13068876       1.41709489      -0.07817165        6 
O       2.51274017      -0.04766890       0.47812010        8 
O       1.52510491       0.95719875      -1.27690346        8 
O      -0.21507734       2.01067570       0.71713561        8 
O      -2.00125588       2.02593923      -0.65281746        8 
C      -0.19753917       3.44779388       0.68811502        6 
C       3.71204354       0.70022705       0.20628206        6 
C       0.42642286      -2.06757020       0.08635567        6 
C      -0.74134931      -2.82590694       0.20617706        6 
C      -1.99600570      -2.23641339       0.19166793        6 
C      -2.15586340      -0.85448563       0.05775809        6 
H       0.04742990       3.79722006      -0.31633475        1 
H       4.10271707       0.44889534      -0.78115666        1 
H      -2.87855844      -2.86033882       0.28473997        1 
H      -1.16685389       3.84960784       0.98607829        1 
H       0.57448068       3.74189063       1.39577755        1 
H       4.41584249       0.41098936       0.98345141        1 
H       3.50890058       1.77105034       0.24844691        1 
H      -0.66136312      -3.90424682       0.29538732        1 
C      -3.55203278      -0.27799717       0.05535416        6 
C       1.75858786      -2.78083871       0.04395020        6 
H       2.37050752      -2.45065445      -0.79882719        1 
H       1.60286227      -3.85643645      -0.05671733        1 
H       2.33856161      -2.60038074       0.95152970        1 
H      -3.79759263       0.15734140      -0.91468622        1 
H      -3.66752888       0.51966308       0.79255111        1 
H      -4.27786623      -1.06114416       0.28269367        1 
