30
Lattice="0.0 0.0 0.0 0.0 0.0 0.0 0.0 0.0 0.0" Properties=species:S:1:pos:R:3:Z:I:1 pbc="F F F"
C       0.70263767       0.44878880      -0.01414101        6 
C      -0.70090083       0.45038120       0.09881341        6 
C       1.35467713      -0.89668548      -0.08100819        6 
C      -1.45721189      -0.83006266       0.34901711        6 
O       2.64628364      -0.89585893       0.30020938        8 
O       0.77747019      -1.90854307      -0.41148596        8 
O      -2.14789398      -1.21479017      -0.73702732        8 
O      -1.50532984      -1.38583472       1.41868846        8 
C      -2.88436762      -2.44551580      -0.60646347        6 
C       3.30160336      -2.17830050       0.28787488        6 
C       1.40157580       1.66659034      -0.15308623        6 
C       0.64939875       2.84457841      -0.15405615        6 
C      -0.73333379       2.83569692      -0.02330778        6 
C      -1.43912828       1.63942807       0.10471611        6 
H      -2.19924726      -3.26655482      -0.39126553        1 
H       2.79700701      -2.86708067       0.96666076        1 
H      -1.27733145       3.77446814      -0.02290784        1 
H      -3.62292027      -2.36833251       0.19327376        1 
H      -3.37199993      -2.59385537      -1.56743393        1 
H       4.31860483      -1.98418400       0.62117100        1 
H       3.29853276      -2.59981052      -0.71841426        1 
H       1.16492024       3.79203786      -0.26657163        1 
C      -2.94336308       1.63668820       0.24898654        6 
C       2.89844855       1.77160100      -0.32830474        6 
H       3.42704960       1.46392748       0.57557367        1 
H       3.17210153       2.80293674      -0.55726090        1 
H       3.26020090       1.13348181      -1.13694250        1 
H      -3.25775921       1.08291386       1.13836006        1 
H      -3.42052197       1.16452509      -0.61397667        1 
H      -3.32448422       2.65538816       0.33494854        1 
