30
Lattice="0.0 0.0 0.0 0.0 0.0 0.0 0.0 0.0 0.0" Properties=species:S:1:pos:R:3:Z:I:1 pbc="F F F"
C       0.72518752       0.42762772       0.09051372        6 
C      -0.68685169       0.42149281       0.00378151        6 
C       1.38529282      -0.91411493      -0.04009416        6 
C      -1.47827719      -0.80982246       0.37427524        6 
O       2.72931663      -0.85616750      -0.14746825        8 
O       0.79217489      -1.96872006      -0.05705493        8 
O      -2.23238590      -1.25224953      -0.64980396        8 
O      -1.46451164      -1.30851172       1.47030774        8 
C      -3.01143774      -2.43444239      -0.38464630        6 
C       3.39711088      -2.12328504      -0.28812235        6 
C       1.42485632       1.65478005       0.06883769        6 
C       0.67193684       2.82773473      -0.05118987        6 
C      -0.70855428       2.80792682      -0.17658089        6 
C      -1.41991404       1.60768100      -0.13222199        6 
H      -2.35389047      -3.26268891      -0.11762295        1 
H       3.21219149      -2.75005181       0.58542310        1 
H      -1.25056724       3.74198855      -0.28178564        1 
H      -3.71540570      -2.25449405       0.42961557        1 
H      -3.54164032      -2.64576964      -1.31077903        1 
H       4.45458322      -1.88213278      -0.37280209        1 
H       3.04628130      -2.64235321      -1.18105144        1 
H       1.19011775       3.78028810      -0.05713540        1 
C      -2.93140083       1.61742058      -0.18608353        6 
C       2.92542993       1.79894860       0.17310623        6 
H       3.33014218       1.23420333       1.01318283        1 
H       3.18239731       2.85172685       0.30405526        1 
H       3.42705725       1.43017981      -0.72367621        1 
H      -3.36449745       1.09871465       0.67442443        1 
H      -3.30034022       1.11626386      -1.08353860        1 
H      -3.30651739       2.64189292      -0.18204563        1 
