30
Lattice="0.0 0.0 0.0 0.0 0.0 0.0 0.0 0.0 0.0" Properties=species:S:1:pos:R:3:Z:I:1 pbc="F F F"
C       0.72017447       0.38477162       0.13863270        6 
C      -0.68753116       0.38881295       0.03907722        6 
C       1.44678960      -0.93436385       0.17138642        6 
C      -1.51973074      -0.82691020       0.35950916        6 
O       2.49091506      -0.92190031      -0.69476236        8 
O       1.14565240      -1.91525427       0.80139162        8 
O      -2.29210180      -1.17851992      -0.69670889        8 
O      -1.50111343      -1.43164623       1.39715136        8 
C      -3.15676658      -2.31157676      -0.48901899        6 
C       3.24547685      -2.14365448      -0.77916208        6 
C       1.44128826       1.59288431       0.08278194        6 
C       0.72284959       2.77705979      -0.08664457        6 
C      -0.65765468       2.77570266      -0.22818631        6 
C      -1.39109593       1.59161191      -0.15679690        6 
H      -2.57309621      -3.19028784      -0.21185990        1 
H       3.65467093      -2.41148619       0.19634639        1 
H      -1.18298372       3.71495143      -0.36505173        1 
H      -3.88043126      -2.09920633       0.30022717        1 
H      -3.66297881      -2.46751437      -1.43924627        1 
H       4.04426591      -1.94103018      -1.48937206        1 
H       2.61288111      -2.95848282      -1.13524212        1 
H       1.26011075       3.71917667      -0.10626938        1 
C      -2.90085607       1.64024137      -0.24144055        6 
C       2.94327892       1.67129625       0.23536931        6 
H       3.31593724       0.97325962       0.98720685        1 
H       3.23218158       2.67957391       0.53842288        1 
H       3.44854987       1.43463054      -0.70333651        1 
H      -3.36874634       1.09870311       0.58572445        1 
H      -3.26207776       1.18807002      -1.16761012        1 
H      -3.24930076       2.67350254      -0.20238679        1 
