30
Lattice="0.0 0.0 0.0 0.0 0.0 0.0 0.0 0.0 0.0" Properties=species:S:1:pos:R:3:Z:I:1 pbc="F F F"
C       1.01190857      -0.10436654      -0.09283898        6 
C      -0.15575647       0.69395864       0.00139663        6 
C       0.92466945      -1.59565472       0.05817444        6 
C      -1.48907889       0.13509960      -0.42138882        6 
O      -0.33095684      -2.01637897       0.31672553        8 
O       1.86878062      -2.35276826       0.10141561        8 
O      -2.44866201       0.34536048       0.50225441        8 
O      -1.68427745      -0.42612579      -1.47042030        8 
C      -3.76236657      -0.13176709       0.16087864        6 
C      -0.50924999      -3.42736643       0.51294410        6 
C       2.28628207       0.50023442      -0.05086772        6 
C       2.34135307       1.88948637       0.10606383        6 
C       1.19668287       2.65769560       0.23743176        6 
C      -0.07597261       2.08416816       0.16569653        6 
H      -4.13109174       0.36743539      -0.73696444        1 
H      -0.20336392      -3.97821859      -0.37764997        1 
H       1.28564434       3.73125956       0.36556975        1 
H      -3.74160863      -1.20870155      -0.01253880        1 
H      -4.38939829       0.10731878       1.01712237        1 
H      -1.57391871      -3.55864327       0.69461424        1 
H       0.07284456      -3.77252930       1.36874437        1 
H       3.31209460       2.37150301       0.13774854        1 
C      -1.29648860       2.97638995       0.21233020        6 
C       3.59005851      -0.25402170      -0.15235951        6 
H       3.75184010      -0.89455398       0.71726401        1 
H       4.41694736       0.45523197      -0.22546162        1 
H       3.61138886      -0.91363520      -1.02039831        1 
H      -1.88905868       2.79655853       1.11162505        1 
H      -1.95458439       2.80623648      -0.64435779        1 
H      -0.99788939       4.02572554       0.19859067        1 
