30
Lattice="0.0 0.0 0.0 0.0 0.0 0.0 0.0 0.0 0.0" Properties=species:S:1:pos:R:3:Z:I:1 pbc="F F F"
C      -0.58298104      -0.66735100      -0.09525957        6 
C      -0.46021087       0.72703911       0.12018144        6 
C       0.60396912      -1.56732534       0.05536157        6 
C       0.87677086       1.39575721       0.01552669        6 
O       1.54303746      -1.02615437       0.86577777        8 
O       0.68853459      -2.69946717      -0.36185943        8 
O       1.56085578       0.92787628      -1.05409135        8 
O       1.26188153       2.31617431       0.69535798        8 
C       2.87838683       1.46817223      -1.23977794        6 
C       2.71360430      -1.82557640       1.09627653        6 
C      -1.85476073      -1.26104832      -0.23099745        6 
C      -2.97018472      -0.42212694      -0.13361043        6 
C      -2.84631472       0.93507608       0.11149903        6 
C      -1.59458935       1.54650810       0.23562953        6 
H       2.83781698       2.55165725      -1.35943687        1 
H       2.44273697      -2.77691469       1.55631920        1 
H      -3.73976377       1.54486911       0.19331614        1 
H       3.50969209       1.22618159      -0.38229772        1 
H       3.26082525       0.99607261      -2.14220252        1 
H       3.33555055      -1.23775363       1.76778231        1 
H       3.23487308      -2.01934855       0.15680186        1 
H      -3.95945709      -0.85535922      -0.23447968        1 
C      -1.52435107       3.03889321       0.45572679        6 
C      -2.08988709      -2.73832963      -0.44570093        6 
H      -1.63539434      -3.08700011      -1.37376371        1 
H      -3.16266521      -2.93846330      -0.48164149        1 
H      -1.65354861      -3.34157974       0.35363633        1 
H      -0.92774554       3.53597134      -0.31322219        1 
H      -1.05811994       3.27562284       1.41325899        1 
H      -2.52850434       3.46592303       0.43764383        1 
