30
Lattice="0.0 0.0 0.0 0.0 0.0 0.0 0.0 0.0 0.0" Properties=species:S:1:pos:R:3:Z:I:1 pbc="F F F"
C       0.91543693       0.25901453      -0.15522594        6 
C      -0.46227407       0.53015848       0.06539148        6 
C       1.43474148      -1.14777037      -0.03148881        6 
C      -1.40803544      -0.57353769      -0.32480527        6 
O       0.86473217      -1.76940076       1.02458713        8 
O       2.38209640      -1.60303364      -0.62731385        8 
O      -2.70742282      -0.27558530      -0.11358202        8 
O      -1.06981090      -1.64053997      -0.78527813        8 
C      -3.65593694      -1.28854758      -0.49260488        6 
C       1.19971034      -3.15561863       1.19140514        6 
C       1.86552185       1.28809898      -0.20349370        6 
C       1.40740672       2.59323632       0.01419512        6 
C       0.08014293       2.85624550       0.30313745        6 
C      -0.89413036       1.84899360       0.31520269        6 
H      -3.56076450      -1.52549447      -1.55307843        1 
H       0.85913005      -3.72380917       0.32356621        1 
H      -0.22579756       3.87784653       0.50012256        1 
H      -3.49941529      -2.19612059       0.09246078        1 
H      -4.63291820      -0.85919008      -0.28009458        1 
H       0.66991127      -3.47575380       2.08623149        1 
H       2.27593524      -3.28562738       1.31445203        1 
H       2.11841816       3.41184814      -0.01504585        1 
C      -2.32154636       2.27140615       0.58392675        6 
C       3.33669614       1.05078176      -0.44314723        6 
H       3.76487140       0.37541914       0.30146153        1 
H       3.87970769       1.99674961      -0.40277762        1 
H       3.50920826       0.58481534      -1.41411215        1 
H      -2.78705847       1.66249834       1.35860095        1 
H      -2.94526668       2.17485505      -0.30741519        1 
H      -2.33844879       3.31544351       0.90241756        1 
