30
Lattice="0.0 0.0 0.0 0.0 0.0 0.0 0.0 0.0 0.0" Properties=species:S:1:pos:R:3:Z:I:1 pbc="F F F"
C       0.67747793       0.45474631      -0.01926865        6 
C      -0.72228105       0.45157869       0.13894243        6 
C       1.34518509      -0.88308497       0.04111920        6 
C      -1.49974013      -0.82754319       0.32910604        6 
O       2.67220146      -0.82439624       0.26623301        8 
O       0.76001154      -1.93794108      -0.07015673        8 
O      -1.91989529      -1.31625364      -0.85027615        8 
O      -1.82211316      -1.27012359       1.40407582        8 
C      -2.63931982      -2.56152490      -0.79036857        6 
C       3.34480151      -2.09377789       0.36544166        6 
C       1.36195688       1.67667001      -0.20899391        6 
C       0.59942149       2.84723809      -0.21635683        6 
C      -0.77800396       2.83270546      -0.03676995        6 
C      -1.46960193       1.63530001       0.13860665        6 
H      -1.99676410      -3.33826447      -0.37316924        1 
H       2.93102792      -2.67912202       1.18751962        1 
H      -1.32926759       3.76720870      -0.04442948        1 
H      -3.53575272      -2.46038173      -0.17632270        1 
H      -2.90243292      -2.79363622      -1.82006005        1 
H       4.38871911      -1.85139035       0.55159719        1 
H       3.23811334      -2.65587737      -0.56351280        1 
H       1.10323304       3.79547522      -0.36808964        1 
C      -2.97009250       1.62051050       0.31610935        6 
C       2.85170502       1.80038157      -0.42942908        6 
H       3.41213939       1.53607302       0.46907989        1 
H       3.09788676       2.82791963      -0.70269982        1 
H       3.20196019       1.13957632      -1.22417601        1 
H      -3.24916800       1.19094736       1.28180236        1 
H      -3.45395413       1.01939814      -0.45927072        1 
H      -3.37493633       2.63197067       0.26093464        1 
