30
Lattice="0.0 0.0 0.0 0.0 0.0 0.0 0.0 0.0 0.0" Properties=species:S:1:pos:R:3:Z:I:1 pbc="F F F"
C       0.53185714       0.55429425      -0.10963148        6 
C      -0.85816781       0.42005254       0.04277298        6 
C       1.43704316      -0.63988728      -0.26973425        6 
C      -1.50869113      -0.92221480       0.23317213        6 
O       2.17133532      -0.83219852       0.84903286        8 
O       1.50968922      -1.34728558      -1.24075639        8 
O      -1.21613385      -1.78126437      -0.75255702        8 
O      -2.24473557      -1.18920656       1.15576025        8 
C      -1.76125222      -3.10859901      -0.63306783        6 
C       3.09549735      -1.93771479       0.81292269        6 
C       1.12831400       1.82355660      -0.19220887        6 
C       0.29585652       2.94035758      -0.14207737        6 
C      -1.08086404       2.80881906       0.00169360        6 
C      -1.68526496       1.55751264       0.11493985        6 
H      -1.44668896      -3.56626453       0.30598466        1 
H       2.56048791      -2.87547185       0.65549331        1 
H      -1.70208888       3.69757374       0.02923975        1 
H      -2.85149095      -3.07758082      -0.66954783        1 
H      -1.36168079      -3.65697608      -1.48269808        1 
H       3.58714749      -1.93489805       1.78297255        1 
H       3.82222337      -1.80128875       0.01055965        1 
H       0.73241107       3.93014577      -0.22214496        1 
C      -3.18313816       1.45781611       0.28849021        6 
C       2.62225007       1.97975278      -0.34627274        6 
H       3.14301545       1.67017302       0.56362666        1 
H       2.88255200       3.01863614      -0.55342531        1 
H       3.00697612       1.36762768      -1.16739310        1 
H      -3.44109003       1.11744179       1.29327795        1 
H      -3.62723379       0.74396989      -0.41046971        1 
H      -3.64808187       2.43028214       0.11788485        1 
