30
Lattice="0.0 0.0 0.0 0.0 0.0 0.0 0.0 0.0 0.0" Properties=species:S:1:pos:R:3:Z:I:1 pbc="F F F"
C      -0.39494609      -0.73700148      -0.07849719        6 
C      -0.72839189       0.62178873       0.00894280        6 
C       1.03344075      -1.17122912      -0.26135516        6 
C       0.35561126       1.64165624       0.17886936        6 
O       1.69921911      -1.15653379       0.91081383        8 
O       1.53002596      -1.47929828      -1.31448499        8 
O       1.24710950       1.58606733      -0.82902319        8 
O       0.45348709       2.39113511       1.12025885        8 
C       2.39706579       2.44377785      -0.71326040        6 
C       3.08897370      -1.53447175       0.85152823        6 
C      -1.39150739      -1.72608336      -0.11270442        6 
C      -2.72068318      -1.31226686      -0.04481502        6 
C      -3.05397155       0.03557006       0.03959759        6 
C      -2.07394560       1.02616298       0.08429543        6 
H       2.09251036       3.49135779      -0.71104062        1 
H       3.18817699      -2.56311683       0.50108901        1 
H      -4.09852826       0.32586713       0.08109111        1 
H       2.94108175       2.22762314       0.20787548        1 
H       3.00839016       2.22243347      -1.58497266        1 
H       3.45799967      -1.43725694       1.86966332        1 
H       3.63373222      -0.87282937       0.17632035        1 
H      -3.50848527      -2.05820181      -0.06560683        1 
C      -2.46914186       2.47797748       0.20617570        6 
C      -1.04548242      -3.19109510      -0.23350785        6 
H      -0.57982788      -3.40693998      -1.19902038        1 
H      -1.94132998      -3.80762975      -0.14259858        1 
H      -0.34324933      -3.50453501       0.54487823        1 
H      -1.98098396       3.09556972      -0.55274957        1 
H      -2.18311857       2.88131008       1.18023349        1 
H      -3.54822191       2.58823997       0.08724442        1 
