30
Lattice="0.0 0.0 0.0 0.0 0.0 0.0 0.0 0.0 0.0" Properties=species:S:1:pos:R:3:Z:I:1 pbc="F F F"
C      -0.44879106      -0.71826801       0.08683785        6 
C      -0.68110365       0.66015803      -0.00489730        6 
C       0.94552261      -1.25136467       0.26647799        6 
C       0.47754720       1.59467209      -0.17939764        6 
O       1.62333201      -1.23738208      -0.89875116        8 
O       1.40980147      -1.62977219       1.31171965        8 
O       1.32844172       1.52693541       0.86259831        8 
O       0.66086126       2.28566824      -1.15176591        8 
C       2.53572471       2.30336632       0.75009009        6 
C       2.98465267      -1.70702766      -0.84400132        6 
C      -1.51527991      -1.63238488       0.11487362        6 
C      -2.80958023      -1.12134530       0.03756599        6 
C      -3.04257635       0.24763109      -0.05070712        6 
C      -1.99182923       1.16307604      -0.08935158        6 
H       3.10297540       1.99807797      -0.13079171        1 
H       3.56347068      -1.11132524      -0.13657196        1 
H      -4.06295633       0.61327315      -0.09903297        1 
H       2.29993280       3.36559037       0.67233968        1 
H       3.09473760       2.09811931       1.66002200        1 
H       3.37047325      -1.59146988      -1.85400834        1 
H       3.01257698      -2.75397989      -0.53750171        1 
H      -3.65065440      -1.80665986       0.05182704        1 
C      -2.27137734       2.64029512      -0.21974076        6 
C      -1.27517885      -3.11852691       0.23106868        6 
H      -0.60083160      -3.47829764      -0.55205489        1 
H      -2.21273195      -3.67018571       0.14288828        1 
H      -0.82000161      -3.36922188       1.19283463        1 
H      -1.95585311       3.01372194      -1.19701382        1 
H      -1.73451530       3.22137959       0.53523826        1 
H      -3.33792407       2.83900040      -0.10143741        1 
