30
Lattice="0.0 0.0 0.0 0.0 0.0 0.0 0.0 0.0 0.0" Properties=species:S:1:pos:R:3:Z:I:1 pbc="F F F"
C      -0.39723861      -0.70376391       0.11653213        6 
C      -0.69953293       0.66845415      -0.00834402        6 
C       1.01711874      -1.20874001       0.18930256        6 
C       0.38704808       1.69314581       0.01907614        6 
O       1.65294961      -1.03224650      -0.98784740        8 
O       1.50124077      -1.77423323       1.13711990        8 
O       1.45930143       1.26495640       0.71897004        8 
O       0.32639187       2.79699185      -0.47150456        8 
C       2.59087123       2.14832548       0.76239789        6 
C       3.02298148      -1.47000008      -1.02920361        6 
C      -1.40963948      -1.67579938       0.13255228        6 
C      -2.73008804      -1.23842546       0.02817482        6 
C      -3.03610502       0.10995406      -0.08869014        6 
C      -2.04319118       1.09143396      -0.11450982        6 
H       2.94734136       2.35958518      -0.24712519        1 
H       3.61150756      -0.93646237      -0.28101026        1 
H      -4.07444103       0.41554112      -0.15984743        1 
H       2.32353770       3.08541173       1.25269199        1 
H       3.34637250       1.61785364       1.33788497        1 
H       3.37182697      -1.23546477      -2.03241169        1 
H       3.08877147      -2.54235898      -0.83950670        1 
H      -3.53129761      -1.97021274       0.03513483        1 
C      -2.46499988       2.53601083      -0.23727062        6 
C      -1.10800608      -3.15186365       0.24898631        6 
H      -0.37527801      -3.47508627      -0.49586947        1 
H      -2.01587708      -3.73932755       0.10155545        1 
H      -0.69486987      -3.39356790       1.23085936        1 
H      -2.15371377       2.96028247      -1.19343121        1 
H      -2.01763980       3.16170794       0.53737015        1 
H      -3.55128570       2.60910055      -0.15793929        1 
