30
Lattice="0.0 0.0 0.0 0.0 0.0 0.0 0.0 0.0 0.0" Properties=species:S:1:pos:R:3:Z:I:1 pbc="F F F"
C       0.18316769      -0.75772962      -0.12606966        6 
C      -0.96626510       0.02895920       0.01682414        6 
C       1.51766876      -0.09666496      -0.32205412        6 
C      -0.88345202       1.50191071      -0.25337088        6 
O       2.24466964      -0.13494644       0.80917893        8 
O       1.91739475       0.36327828      -1.36406159        8 
O      -0.09069830       2.12888023       0.63931859        8 
O      -1.40278563       2.05207404      -1.19197730        8 
C       0.17900932       3.51947293       0.37148684        6 
C       3.55545027       0.45668512       0.73361256        6 
C       0.11584183      -2.15782585      -0.04779478        6 
C      -1.13431778      -2.73398313       0.17455823        6 
C      -2.27622983      -1.95337369       0.32503912        6 
C      -2.22328484      -0.56360103       0.22913662        6 
H       0.66545790       3.62554939      -0.59923685        1 
H       4.16588483      -0.06080717      -0.00819784        1 
H      -3.23119374      -2.43541858       0.50644347        1 
H      -0.74676184       4.09619979       0.37757219        1 
H       0.83845733       3.84445406       1.17307284        1 
H       3.98060382       0.34519246       1.72834887        1 
H       3.47727214       1.51079873       0.46373398        1 
H      -1.21579850      -3.81432657       0.23434281        1 
C      -3.48217891       0.26166458       0.34022286        6 
C       1.34767821      -3.01797492      -0.19321613        6 
H       1.92068821      -2.75032669      -1.08544257        1 
H       1.07533668      -4.07168941      -0.27367527        1 
H       2.00910284      -2.90306033       0.67013685        1 
H      -3.75227887       0.69171851      -0.62758457        1 
H      -3.36174603       1.09321007       1.04005509        1 
H      -4.31459894      -0.35254085       0.68833743        1 
