30
Lattice="0.0 0.0 0.0 0.0 0.0 0.0 0.0 0.0 0.0" Properties=species:S:1:pos:R:3:Z:I:1 pbc="F F F"
C       0.68327890       0.32476453      -0.09588687        6 
C      -0.72576088       0.28410674       0.15934503        6 
C       1.52643275      -0.82981933       0.38848173        6 
C      -1.42750444      -1.02729684      -0.13886158        6 
O       2.69714077      -0.94717702      -0.28264701        8 
O       1.18822936      -1.61567565       1.23474583        8 
O      -2.74889817      -0.84042024      -0.38578170        8 
O      -0.92519916      -2.11820889      -0.23074517        8 
C      -3.49025093      -2.02009794      -0.73703719        6 
C       3.51950900      -2.06274304       0.10327399        6 
C       1.31420870       1.55751809      -0.35328364        6 
C       0.53648002       2.72211151      -0.28112221        6 
C      -0.78715432       2.68598397       0.10828239        6 
C      -1.45987499       1.47411376       0.31270331        6 
H      -3.09571322      -2.46258431      -1.65320979        1 
H       3.79299769      -1.99406374       1.15745548        1 
H      -1.33292004       3.61541442       0.23157456        1 
H      -3.44036657      -2.75935490       0.06409364        1 
H      -4.51400760      -1.68185165      -0.88525034        1 
H       4.40373886      -2.00225786      -0.52787739        1 
H       2.98701292      -2.99998447      -0.06589488        1 
H       1.00755175       3.67891457      -0.47840056        1 
C      -2.91989380       1.56261185       0.70563641        6 
C       2.78569813       1.72885399      -0.66235882        6 
H       3.41946203       1.40648335       0.16644359        1 
H       2.99540642       2.78110875      -0.86182108        1 
H       3.08271396       1.14161214      -1.53141279        1 
H      -3.21311847       0.76954386       1.39127037        1 
H      -3.57398719       1.49288991      -0.16611192        1 
H      -3.09952785       2.52497215       1.19101013        1 
