30
Lattice="0.0 0.0 0.0 0.0 0.0 0.0 0.0 0.0 0.0" Properties=species:S:1:pos:R:3:Z:I:1 pbc="F F F"
C       0.08009836      -0.72654161      -0.07864164        6 
C      -0.99515754       0.18082227       0.00358009        6 
C       1.49342569      -0.27120230      -0.32646604        6 
C      -0.75858969       1.65383326      -0.06831740        6 
O       2.23700573      -0.36617031       0.79013355        8 
O       1.93189836       0.03811560      -1.40693562        8 
O       0.48522471       1.98830334       0.33693669        8 
O      -1.57203477       2.47753282      -0.41814850        8 
C       0.84286117       3.37419530       0.20531043        6 
C       3.62579060      -0.01689621       0.64970227        6 
C      -0.13084633      -2.11271817      -0.02453367        6 
C      -1.44006346      -2.56629864       0.13262968        6 
C      -2.50322666      -1.67929540       0.22804494        6 
C      -2.31700251      -0.29755799       0.15927441        6 
H       0.78800235       3.68135727      -0.83999760        1 
H       4.11278746      -0.66876587      -0.07744922        1 
H      -3.50846149      -2.06604631       0.35543919        1 
H       0.17513604       3.99741169       0.80161711        1 
H       1.86418517       3.44481169       0.57282474        1 
H       4.05963202      -0.15119391       1.63793668        1 
H       3.72494387       1.01965392       0.32354600        1 
H      -1.62830224      -3.63394089       0.17922932        1 
C      -3.53024030       0.59506420       0.27023580        6 
C       1.00796388      -3.09905047      -0.13509714        6 
H       1.61766267      -2.91007139      -1.02311833        1 
H       0.62561737      -4.11885061      -0.20291812        1 
H       1.66641715      -3.04024643       0.73561782        1 
H      -3.73549999       1.10490289      -0.67272872        1 
H      -3.39687940       1.37729291       1.01975205        1 
H      -4.40277997      -0.00187392       0.54321871        1 
