30
Lattice="0.0 0.0 0.0 0.0 0.0 0.0 0.0 0.0 0.0" Properties=species:S:1:pos:R:3:Z:I:1 pbc="F F F"
C       0.98084534      -0.25499379       0.01075845        6 
C      -0.00577189       0.74609322      -0.08299949        6 
C       0.61064418      -1.70244773      -0.05484374        6 
C      -1.45980967       0.42201445      -0.31063536        6 
O      -0.69441839      -1.91178987       0.22202745        8 
O       1.36971776      -2.61103327      -0.30361941        8 
O      -2.16205863       0.50321932       0.83405833        8 
O      -1.95393063       0.22702256      -1.39377489        8 
C      -3.57400431       0.24726407       0.72359947        6 
C      -1.17451701      -3.25797138       0.06936827        6 
C       2.33945817       0.10325584       0.16489284        6 
C       2.64724812       1.46418329       0.21175446        6 
C       1.66764015       2.44324068       0.10491239        6 
C       0.32264954       2.10734582      -0.04342358        6 
H      -4.04526567       0.97009391       0.05550985        1 
H      -1.00726668      -3.60714360      -0.95032178        1 
H       1.95197133       3.48977328       0.13717588        1 
H      -3.74706673      -0.75954517       0.33982008        1 
H      -3.96612919       0.34486714       1.73339993        1 
H      -2.23917863      -3.21027506       0.28749299        1 
H      -0.66828250      -3.92506201       0.76841310        1 
H       3.68304239       1.76077168       0.33379013        1 
C      -0.73856648       3.17604888      -0.16026141        6 
C       3.46222374      -0.89758541       0.29703929        6 
H       3.26064017      -1.63355237       1.07773604        1 
H       4.39206323      -0.37901753       0.53827978        1 
H       3.60279097      -1.46373623      -0.62542337        1 
H      -1.41456892       3.15542503       0.69939294        1 
H      -1.34659589       3.03537021      -1.05821446        1 
H      -0.28537350       4.16715099      -0.21119934        1 
