30
Lattice="0.0 0.0 0.0 0.0 0.0 0.0 0.0 0.0 0.0" Properties=species:S:1:pos:R:3:Z:I:1 pbc="F F F"
C       0.83693112       0.43369426       0.08562610        6 
C      -0.55285531       0.47358924      -0.12263239        6 
C       1.57979577      -0.86583701       0.23137882        6 
C      -1.38164386      -0.78500491      -0.17508220        6 
O       1.45495613      -1.63588042      -0.85643173        8 
O       2.26945291      -1.15176255       1.18357331        8 
O      -2.25314392      -0.80538137       0.86061878        8 
O      -1.31187386      -1.66807111      -0.99092860        8 
C      -3.15055528      -1.93052723       0.90856429        6 
C       2.07951661      -2.93137247      -0.80701471        6 
C       1.58135159       1.62295461       0.17916470        6 
C       0.90194469       2.83067427       0.02104809        6 
C      -0.46894501       2.86846518      -0.20521410        6 
C      -1.22595033       1.69939768      -0.26559486        6 
H      -3.77244794      -1.96108037       0.01207337        1 
H       3.15906486      -2.83246609      -0.68278707        1 
H      -0.96386677       3.82493053      -0.33667883        1 
H      -2.59071201      -2.86353617       0.98709996        1 
H      -3.76175243      -1.77460807       1.79467433        1 
H       1.83938974      -3.39943384      -1.75853374        1 
H       1.67289495      -3.51588402       0.01971660        1 
H       1.46131001       3.75867715       0.06954969        1 
C      -2.71797874       1.77403417      -0.49838049        6 
C       3.07186268       1.61821851       0.42226987        6 
H       3.30536526       1.24315571       1.42056121        1 
H       3.47423680       2.62733752       0.32287481        1 
H       3.59497762       0.97368677      -0.28978339        1 
H      -3.27024436       1.60091416       0.42881387        1 
H      -3.05485364       1.02736430      -1.22261557        1 
H      -2.99453212       2.75767875      -0.88205257        1 
