30
Lattice="0.0 0.0 0.0 0.0 0.0 0.0 0.0 0.0 0.0" Properties=species:S:1:pos:R:3:Z:I:1 pbc="F F F"
C      -0.68105061      -0.64264381       0.01624044        6 
C      -0.45132964       0.74024241      -0.06767741        6 
C       0.46711912      -1.59718963       0.12859012        6 
C       0.94492774       1.27512499      -0.21762873        6 
O       1.42075402      -1.34193472      -0.78955988        8 
O       0.54759045      -2.48884524       0.93938368        8 
O       1.63221404       1.15968548       0.93721907        8 
O       1.40543397       1.72738677      -1.23458330        8 
C       3.01585692       1.55601261       0.88715073        6 
C       2.60263631      -2.15918309      -0.72161995        6 
C      -1.99375025      -1.15039833       0.08299933        6 
C      -3.04420049      -0.23386735       0.04628706        6 
C      -2.81351696       1.13503322      -0.03264020        6 
C      -1.51968788       1.65012520      -0.09978806        6 
H       3.54907366       0.96423089       0.14121498        1 
H       3.08476192      -2.05089641       0.25155627        1 
H      -3.65642841       1.81784650      -0.04979920        1 
H       3.10227771       2.61366210       0.63381698        1 
H       3.40742677       1.36570597       1.88364882        1 
H       3.24880011      -1.79597948      -1.51743248        1 
H       2.34954126      -3.20862935      -0.87941404        1 
H      -4.06418775      -0.60193137       0.08249038        1 
C      -1.28462785       3.13616078      -0.21390743        6 
C      -2.29580231      -2.62796105       0.17686018        6 
H      -1.74846892      -3.20472024      -0.57299392        1 
H      -3.36247354      -2.80339616       0.02612172        1 
H      -2.01031940      -3.02754490       1.15213190        1 
H      -0.83572146       3.38727737      -1.17818842        1 
H      -0.60475146       3.49582882       0.56405988        1 
H      -2.22329110       3.68442104      -0.11809447        1 
