30
Lattice="0.0 0.0 0.0 0.0 0.0 0.0 0.0 0.0 0.0" Properties=species:S:1:pos:R:3:Z:I:1 pbc="F F F"
C       0.86566976       0.37679153       0.04070817        6 
C      -0.51109705       0.59985922       0.16347626        6 
C       1.41550112      -0.99556320       0.31941717        6 
C      -1.41156917      -0.59272797       0.30748369        6 
O       1.29034846      -1.80342256      -0.75422431        8 
O       1.84827635      -1.35176029       1.38424722        8 
O      -2.29649899      -0.65607554      -0.70939793        8 
O      -1.36978280      -1.40117367       1.20275976        8 
C      -3.22982584      -1.75256134      -0.66850699        6 
C       1.65039612      -3.18478017      -0.54525832        6 
C       1.75292652       1.43516763      -0.19059631        6 
C       1.21459098       2.71735502      -0.29610590        6 
C      -0.15203549       2.94336957      -0.15425360        6 
C      -1.04583711       1.89402638       0.06122814        6 
H      -2.69915326      -2.70529876      -0.69400378        1 
H       2.70066308      -3.26910454      -0.26274453        1 
H      -0.53402365       3.95670878      -0.21851179        1 
H      -3.83711930      -1.70410293       0.23679433        1 
H      -3.85017613      -1.63606713      -1.55439600        1 
H       1.46881360      -3.67752133      -1.49789028        1 
H       1.02807191      -3.61598907       0.24022914        1 
H       1.87744579       3.55655801      -0.47769307        1 
C      -2.52777659       2.16089020       0.18547933        6 
C       3.23677971       1.18613262      -0.30431808        6 
H       3.64464167       0.81768686       0.64126811        1 
H       3.76712708       2.10174435      -0.57021573        1 
H       3.45530533       0.43468001      -1.06900487        1 
H      -2.97702773       1.58034871       0.99529846        1 
H      -3.05246720       1.89226129      -0.73507753        1 
H      -2.71045758       3.21739510       0.38949121        1 
