30
Lattice="0.0 0.0 0.0 0.0 0.0 0.0 0.0 0.0 0.0" Properties=species:S:1:pos:R:3:Z:I:1 pbc="F F F"
C       0.71043760       0.45437988      -0.06058895        6 
C      -0.69010391       0.44940007       0.06530007        6 
C       1.39008238      -0.86890050      -0.25863893        6 
C      -1.37946005      -0.86899455       0.27434036        6 
O       2.46024567      -1.02856865       0.53962248        8 
O       1.01258854      -1.70628581      -1.04389287        8 
O      -2.40393223      -1.05050074      -0.57783006        8 
O      -1.06030317      -1.67161076       1.11866319        8 
C      -3.11415434      -2.29736926      -0.45055921        6 
C       3.13404941      -2.29784217       0.43366018        6 
C       1.42117418       1.66065011      -0.14672602        6 
C       0.68566186       2.84711177      -0.08053727        6 
C      -0.69553500       2.84077213       0.06753988        6 
C      -1.41672406       1.64658188       0.14222880        6 
H      -2.44108272      -3.13376610      -0.64298623        1 
H       2.45750899      -3.10485349       0.71829890        1 
H      -1.23007508       3.78282224       0.12919730        1 
H      -3.53687477      -2.39641950       0.55049705        1 
H      -3.90220849      -2.25794440      -1.19929192        1 
H       3.97258433      -2.23754500       1.12367140        1 
H       3.48282313      -2.46255485      -0.58681613        1 
H       1.20932218       3.79446938      -0.15098196        1 
C      -2.91742499       1.67921101       0.31966432        6 
C       2.91889839       1.71090227      -0.33202059        6 
H       3.43740301       1.36012429       0.56251705        1 
H       3.24120544       2.73191492      -0.54267220        1 
H       3.24512092       1.07702229      -1.16093222        1 
H      -3.24392217       1.03414923       1.13992298        1 
H      -3.42759809       1.33361266      -0.58204164        1 
H      -3.25226106       2.69452144       0.53886617        1 
