30
Lattice="0.0 0.0 0.0 0.0 0.0 0.0 0.0 0.0 0.0" Properties=species:S:1:pos:R:3:Z:I:1 pbc="F F F"
C       0.23927176      -0.69915268       0.05048243        6 
C      -0.99778295      -0.02238790       0.04085355        6 
C       1.48872542       0.07115271       0.36180696        6 
C      -1.04468417       1.47242817       0.08925344        6 
O       2.45441138      -0.13931689      -0.55170061        8 
O       1.62410497       0.78403930       1.32721537        8 
O      -0.06824907       2.02115370      -0.66534268        8 
O      -1.88139705       2.12527234       0.66568007        8 
C       0.04752081       3.45286278      -0.59926238        6 
C       3.69851789       0.54543802      -0.31570442        6 
C       0.29735420      -2.09870727      -0.05317047        6 
C      -0.90968975      -2.78796994      -0.18997788        6 
C      -2.12702895      -2.12301335      -0.21159900        6 
C      -2.20591081      -0.73348610      -0.09139812        6 
H      -0.88686620       3.92754762      -0.90116052        1 
H       3.53815086       1.62432922      -0.30119252        1 
H      -3.04325541      -2.69328085      -0.32196912        1 
H       0.29945826       3.75955887       0.41726489        1 
H       0.84942855       3.71008389      -1.28777425        1 
H       4.34549595       0.26405799      -1.14345381        1 
H       4.13119622       0.23451409       0.63646988        1 
H      -0.89303699      -3.87002993      -0.26817338        1 
C      -3.56352252      -0.07209240      -0.12395044        6 
C       1.59175593      -2.87551433       0.01224319        6 
H       2.18370102      -2.73963135      -0.89579761        1 
H       1.38659617      -3.94079418       0.13244479        1 
H       2.21375601      -2.55835704       0.85313286        1 
H      -3.60846616       0.73673784      -0.85675087        1 
H      -3.81025213       0.37018974       0.84284894        1 
H      -4.32960236      -0.80684239      -0.37893105        1 
