30
Lattice="0.0 0.0 0.0 0.0 0.0 0.0 0.0 0.0 0.0" Properties=species:S:1:pos:R:3:Z:I:1 pbc="F F F"
C       0.64614082       0.42609081      -0.10067741        6 
C      -0.73430506       0.43109517       0.16577685        6 
C       1.35626269      -0.89245271      -0.00187802        6 
C      -1.52763573      -0.84539486       0.27805821        6 
O       2.53754192      -0.78002896       0.64012028        8 
O       0.93066758      -1.95139859      -0.40045108        8 
O      -1.78723387      -1.35453644      -0.93491798        8 
O      -2.00343811      -1.26650902       1.30573132        8 
C      -2.52290210      -2.59197330      -0.95841726        6 
C       3.27699239      -2.00417813       0.81069068        6 
C       1.33126101       1.63396578      -0.33331876        6 
C       0.58983824       2.81578882      -0.28413081        6 
C      -0.76731452       2.81654144       0.01762646        6 
C      -1.46094687       1.62748307       0.24049272        6 
H      -1.93200817      -3.38096126      -0.49086704        1 
H       2.69157347      -2.72405324       1.38420508        1 
H      -1.30532616       3.75768318       0.06125211        1 
H      -3.47320914      -2.48569215      -0.43327234        1 
H      -2.68445295      -2.81079094      -2.01144930        1 
H       4.17789471      -1.72303859       1.35129239        1 
H       3.52755731      -2.43709414      -0.15906665        1 
H       1.09006335       3.75758557      -0.48225726        1 
C      -2.94402714       1.63484132       0.52757602        6 
C       2.80391189       1.70252301      -0.66275327        6 
H       3.41469461       1.60362224       0.23736478        1 
H       3.03691424       2.65983093      -1.13293363        1 
H       3.10699445       0.90647279      -1.34540372        1 
H      -3.15642011       1.22633152       1.51839883        1 
H      -3.49200496       1.02399160      -0.19655578        1 
H      -3.34015909       2.65005934       0.47831580        1 
