30
Lattice="0.0 0.0 0.0 0.0 0.0 0.0 0.0 0.0 0.0" Properties=species:S:1:pos:R:3:Z:I:1 pbc="F F F"
C       0.48287839      -0.60241503       0.06376383        6 
C      -0.88973609      -0.28339508       0.06608711        6 
C       1.44541592       0.52124542       0.28620201        6 
C      -1.36025652       1.13727425       0.20500356        6 
O       2.60806061       0.35348127      -0.37386318        8 
O       1.21135389       1.49444978       0.96544669        8 
O      -0.98197351       1.88436974      -0.85040419        8 
O      -2.05475145       1.53920645       1.10438907        8 
C      -1.30409030       3.28502640      -0.76682764        6 
C       3.58550165       1.39524577      -0.19839853        6 
C       0.89921299      -1.94591430      -0.04862553        6 
C      -0.09194570      -2.92106934      -0.18202914        6 
C      -1.44119116      -2.59663192      -0.20717101        6 
C      -1.87150317      -1.27614379      -0.07624501        6 
H      -2.38040238       3.42518621      -0.65800821        1 
H       3.20122821       2.34310635      -0.57791614        1 
H      -2.17865601      -3.38409749      -0.32262683        1 
H      -0.79043032       3.72994456       0.08686794        1 
H      -0.95125186       3.71970062      -1.69943274        1 
H       4.45297767       1.07565828      -0.77155228        1 
H       3.83856926       1.50759140       0.85678442        1 
H       0.20568387      -3.96118994      -0.26234662        1 
C      -3.34827088      -0.95720678      -0.09465877        6 
C       2.34138827      -2.39607094      -0.00127395        6 
H       2.87712875      -2.11126705      -0.90866665        1 
H       2.38567825      -3.48209305       0.09948442        1 
H       2.88155649      -1.95546974       0.83904961        1 
H      -3.58379281      -0.16899069      -0.81495898        1 
H      -3.68828794      -0.60872979       0.88309589        1 
H      -3.92479206      -1.84329300      -0.36633630        1 
