30
Lattice="0.0 0.0 0.0 0.0 0.0 0.0 0.0 0.0 0.0" Properties=species:S:1:pos:R:3:Z:I:1 pbc="F F F"
C      -0.61172971      -0.66808742       0.07336633        6 
C      -0.47758290       0.72766223      -0.08496919        6 
C       0.58639547      -1.56203524       0.01679124        6 
C       0.87654969       1.37017161      -0.08119878        6 
O       1.51391685      -1.09345736      -0.84843448        8 
O       0.70161766      -2.62033855       0.58891634        8 
O       1.57495967       1.00965784       1.01859532        8 
O       1.28094921       2.15644494      -0.90158339        8 
C       2.92167084       1.50591791       1.09538142        6 
C       2.71931251      -1.86660846      -0.96404813        6 
C      -1.88823633      -1.26013799       0.16741381        6 
C      -2.99694676      -0.41276490       0.09822587        6 
C      -2.86072298       0.95769859      -0.06725393        6 
C      -1.60467842       1.56091400      -0.16308457        6 
H       3.51151211       1.12116760       0.26098829        1 
H       3.23319730      -1.91480621      -0.00220273        1 
H      -3.74890603       1.57851939      -0.11958639        1 
H       2.93255858       2.59617686       1.06893355        1 
H       3.31229203       1.14000174       2.04237879        1 
H       3.32637593      -1.34469349      -1.70043398        1 
H       2.49319376      -2.87967449      -1.29956193        1 
H      -3.99030613      -0.84335222       0.16400099        1 
C      -1.50286550       3.05822597      -0.32915323        6 
C      -2.11734135      -2.74696035       0.30792991        6 
H      -1.58752765      -3.31638339      -0.45887729        1 
H      -3.18322738      -2.96844526       0.22293240        1 
H      -1.75954069      -3.11694738       1.27018743        1 
H      -1.06964758       3.31720975      -1.29695193        1 
H      -0.86437523       3.50908342       0.43515737        1 
H      -2.49170184       3.51377276      -0.25449385        1 
