30
Lattice="0.0 0.0 0.0 0.0 0.0 0.0 0.0 0.0 0.0" Properties=species:S:1:pos:R:3:Z:I:1 pbc="F F F"
C       0.23544365      -0.68466651       0.02557670        6 
C      -1.00224275      -0.00094931       0.07346786        6 
C       1.49116152       0.05313793       0.39200264        6 
C      -1.04760552       1.49481863       0.03543690        6 
O       2.48846268      -0.16880229      -0.48517702        8 
O       1.60262497       0.75681322       1.36662445        8 
O       0.02193385       2.00852667      -0.61087904        8 
O      -1.96920905       2.17902707       0.41548216        8 
C       0.10621907       3.44177754      -0.65154784        6 
C       3.73532363       0.48741852      -0.19310967        6 
C       0.28461050      -2.08162507      -0.11013698        6 
C      -0.92936946      -2.76561780      -0.22039868        6 
C      -2.14304576      -2.10003825      -0.17186373        6 
C      -2.21642247      -0.71128326      -0.02522036        6 
H      -0.78091996       3.86477450      -1.12465054        1 
H       3.59582896       1.56910598      -0.17051664        1 
H      -3.06406586      -2.66706943      -0.25410568        1 
H       0.20368486       3.84072298       0.35956797        1 
H       0.99625129       3.66232372      -1.23697439        1 
H       4.40836140       0.20315170      -0.99888877        1 
H       4.12552929       0.15677604       0.77085969        1 
H      -0.91837344      -3.84546114      -0.32559767        1 
C      -3.58219879      -0.06627246      -0.00396476        6 
C       1.57157361      -2.87438012      -0.09940985        6 
H       2.15026358      -2.71003469      -1.01096115        1 
H       1.35373520      -3.94083960      -0.01834880        1 
H       2.21298955      -2.60015413       0.74184860        1 
H      -3.68157255       0.70762046      -0.76790954        1 
H      -3.77872091       0.41984990       0.95264909        1 
H      -4.34973020      -0.82314882      -0.17752830        1 
