30
Lattice="0.0 0.0 0.0 0.0 0.0 0.0 0.0 0.0 0.0" Properties=species:S:1:pos:R:3:Z:I:1 pbc="F F F"
C       0.72147237       0.41209038       0.05495166        6 
C      -0.69576820       0.41052877      -0.00954206        6 
C       1.38808341      -0.90987764      -0.20513908        6 
C      -1.43332592      -0.84983178       0.36591399        6 
O       2.69208792      -0.94031635       0.13883773        8 
O       0.81705011      -1.88068773      -0.64450940        8 
O      -2.46671675      -1.10604901      -0.45991960        8 
O      -1.13201582      -1.55630165       1.29546212        8 
C      -3.20860039      -2.30745123      -0.17971961        6 
C       3.35875455      -2.19999275      -0.06282343        6 
C       1.42922203       1.63026549       0.04089384        6 
C       0.68174870       2.81374118      -0.01775854        6 
C      -0.69998679       2.80474839      -0.09253796        6 
C      -1.42366020       1.60754092      -0.07032863        6 
H      -2.55170871      -3.17634908      -0.23576718        1 
H       2.88434232      -2.97916164       0.53534560        1 
H      -1.23842464       3.74519289      -0.14356972        1 
H      -3.65720225      -2.25851193       0.81405683        1 
H      -3.97904378      -2.35669395      -0.94620986        1 
H       4.38484595      -2.03714371       0.25983950        1 
H       3.32554302      -2.48686961      -1.11488979        1 
H       1.20679218       3.76252911      -0.02323811        1 
C      -2.93570612       1.66509518      -0.06699537        6 
C       2.93524791       1.75327503       0.06033227        6 
H       3.36432088       1.28583927       0.94719805        1 
H       3.21859996       2.80730683       0.04883355        1 
H       3.39352526       1.26611612      -0.80271573        1 
H      -3.36105253       1.10863727       0.77201267        1 
H      -3.35390399       1.23366686      -0.97816417        1 
H      -3.27085972       2.70063217       0.01231823        1 
