30
Lattice="0.0 0.0 0.0 0.0 0.0 0.0 0.0 0.0 0.0" Properties=species:S:1:pos:R:3:Z:I:1 pbc="F F F"
C       0.74236743      -0.48185954       0.14622427        6 
C       0.18922869       0.78848094      -0.16014855        6 
C      -0.04547233      -1.73441246      -0.12825162        6 
C      -1.28262528       1.05674399      -0.01065417        6 
O      -1.35792224      -1.51311759      -0.35230256        8 
O       0.44609558      -2.82833249      -0.29689421        8 
O      -1.72011797       0.60258758       1.18428574        8 
O      -1.95104613       1.76209412      -0.72872519        8 
C      -3.11658208       0.79529737       1.45486873        6 
C      -2.12873328      -2.64129167      -0.79801647        6 
C       2.12497656      -0.61294510       0.38661571        6 
C       2.91522306       0.53494696       0.26839155        6 
C       2.38187100       1.75154424      -0.12381013        6 
C       1.00833983       1.91527165      -0.33168007        6 
H      -3.37846196       1.85381829       1.41913182        1 
H      -1.71422212      -3.04857556      -1.72133473        1 
H       3.03660451       2.60800614      -0.24288444        1 
H      -3.72027678       0.25274707       0.72410886        1 
H      -3.27655736       0.39330891       2.45300920        1 
H      -3.13109147      -2.25356561      -0.96705122        1 
H      -2.14214010      -3.42186662      -0.03564717        1 
H       3.97944348       0.45708376       0.46238091        1 
C       0.46817900       3.28214911      -0.68153173        6 
C       2.80500913      -1.91018384       0.75508294        6 
H       2.23272664      -2.48290369       1.48522108        1 
H       3.79222966      -1.69800753       1.17200403        1 
H       2.92648742      -2.55671955      -0.11657884        1 
H      -0.22932224       3.64845695       0.07677281        1 
H      -0.07987402       3.26397701      -1.62408171        1 
H       1.28745841       3.99861952      -0.76268345        1 
