30
Lattice="0.0 0.0 0.0 0.0 0.0 0.0 0.0 0.0 0.0" Properties=species:S:1:pos:R:3:Z:I:1 pbc="F F F"
C       0.70490307       0.43052190       0.00900159        6 
C      -0.70122838       0.39914485       0.13238715        6 
C       1.54882226      -0.76756017       0.36863010        6 
C      -1.36029508      -0.95101826       0.07651039        6 
O       2.19243630      -1.26599524      -0.70723722        8 
O       1.62960888      -1.22778592       1.47629505        8 
O      -2.57954754      -0.89394620      -0.50776374        8 
O      -0.87690827      -1.99354104       0.44705258        8 
C      -3.27752265      -2.14608093      -0.62680428        6 
C       2.98093180      -2.44872288      -0.46705709        6 
C       1.38787533       1.63869905      -0.19212037        6 
C       0.63637141       2.81312014      -0.24269289        6 
C      -0.73927827       2.79339221      -0.05971776        6 
C      -1.44290909       1.59912377       0.11282563        6 
H      -2.71422733      -2.83892248      -1.25382662        1 
H       3.76302092      -2.24513729       0.26597091        1 
H      -1.28912686       3.72843933      -0.05683518        1 
H      -3.42825070      -2.59569749       0.35569111        1 
H      -4.23155745      -1.90048156      -1.08870161        1 
H       3.41439248      -2.70824145      -1.43032976        1 
H       2.34300781      -3.25360230      -0.09927588        1 
H       1.14283970       3.76070731      -0.39258181        1 
C      -2.94250238       1.68148665       0.29911950        6 
C       2.89270834       1.68393408      -0.31511269        6 
H       3.37590981       1.18456948       0.52998622        1 
H       3.24585261       2.71578452      -0.34017870        1 
H       3.22891834       1.18007367      -1.22440322        1 
H      -3.30402151       0.98398215       1.05548635        1 
H      -3.47173058       1.44908631      -0.62754778        1 
H      -3.21670051       2.69248920       0.60741934        1 
