30
Lattice="0.0 0.0 0.0 0.0 0.0 0.0 0.0 0.0 0.0" Properties=species:S:1:pos:R:3:Z:I:1 pbc="F F F"
C      -0.59704010      -0.65270730       0.05221817        6 
C      -0.53425142       0.74317843      -0.04141833        6 
C       0.65876439      -1.45635019       0.22644728        6 
C       0.79882923       1.41120744      -0.21345468        6 
O       1.43389874      -1.40371231      -0.87466250        8 
O       0.95371060      -2.06105159       1.22741069        8 
O       1.52704797       1.33583246       0.91831129        8 
O       1.19861839       1.89830394      -1.24090721        8 
C       2.87220558       1.84501140       0.84196426        6 
C       2.68492157      -2.11419606      -0.80325605        6 
C      -1.83362570      -1.31944991       0.10441068        6 
C      -2.99021318      -0.54426870       0.03831479        6 
C      -2.92815574       0.84236105      -0.05768694        6 
C      -1.70671231       1.51270839      -0.11138947        6 
H       3.42763983       1.32721803       0.05832031        1 
H       3.30303205      -1.71727470       0.00361102        1 
H      -3.84791592       1.41622403      -0.10099766        1 
H       2.86347660       2.91474333       0.62748365        1 
H       3.30941909       1.65168997       1.81859142        1 
H       3.16101752      -1.95630426      -1.76804413        1 
H       2.50845355      -3.17651196      -0.62812153        1 
H      -3.95738026      -1.03477469       0.06697727        1 
C      -1.65765172       3.01507095      -0.24702899        6 
C      -1.92237061      -2.82216190       0.22748202        6 
H      -1.31632624      -3.32555391      -0.53145736        1 
H      -2.95429725      -3.15664739       0.10685263        1 
H      -1.56296293      -3.15906144       1.20291344        1 
H      -1.22905952       3.30731513      -1.20910759        1 
H      -1.04139912       3.46890009       0.53472071        1 
H      -2.65983555       3.43991562      -0.17298633        1 
