30
Lattice="0.0 0.0 0.0 0.0 0.0 0.0 0.0 0.0 0.0" Properties=species:S:1:pos:R:3:Z:I:1 pbc="F F F"
C       0.70316982       0.51769888       0.14805921        6 
C      -0.69352092       0.48415520       0.13972515        6 
C       1.47351646      -0.74994576       0.39283509        6 
C      -1.42258844      -0.80893530       0.38396579        6 
O       1.93126829      -1.26589403      -0.76805795        8 
O       1.65654885      -1.25819176       1.46935795        8 
O      -1.82998306      -1.35909459      -0.78050274        8 
O      -1.63254553      -1.29825089       1.46412742        8 
C      -2.56906467      -2.59238447      -0.67158473        6 
C       2.67038372      -2.49919701      -0.66169292        6 
C       1.39656403       1.71849615      -0.05925652        6 
C       0.64334205       2.87512525      -0.25750482        6 
C      -0.74896470       2.84066354      -0.26853317        6 
C      -1.44549153       1.64794404      -0.07918116        6 
H      -1.96626123      -3.35524379      -0.17696305        1 
H       3.56603804      -2.35742173      -0.05479438        1 
H      -1.30548701       3.75830403      -0.42738598        1 
H      -3.48762347      -2.43716960      -0.10309924        1 
H      -2.79546073      -2.88397882      -1.69468707        1 
H       2.93564240      -2.76514266      -1.68240191        1 
H       2.05031522      -3.27477274      -0.20970225        1 
H       1.15457887       3.82004396      -0.40667935        1 
C      -2.95499939       1.60535230      -0.10409246        6 
C       2.90520865       1.74894279      -0.06341899        6 
H       3.31289408       1.27488837       0.83410496        1 
H       3.27405680       2.77488983      -0.10035868        1 
H       3.30537367       1.21131207      -0.92818539        1 
H      -3.35548143       1.15834405       0.81064181        1 
H      -3.31778671       1.00841225      -0.94613849        1 
H      -3.37086344       2.60951769      -0.19810023        1 
