30
Lattice="0.0 0.0 0.0 0.0 0.0 0.0 0.0 0.0 0.0" Properties=species:S:1:pos:R:3:Z:I:1 pbc="F F F"
C      -0.21870965      -0.74848835      -0.14792882        6 
C      -0.78455939       0.53122424       0.06663837        6 
C       1.26542245      -0.99694222      -0.12751005        6 
C       0.03881918       1.76992259      -0.10349846        6 
O       1.76154759      -0.76967636       1.10630010        8 
O       1.90245261      -1.49108944      -1.02487939        8 
O       1.33021766       1.49832392      -0.38745985        8 
O      -0.38784422       2.90289361      -0.09892791        8 
C       2.17380113       2.62181738      -0.68391538        6 
C       3.17070082      -1.00143219       1.26495859        6 
C      -1.02049178      -1.89766588      -0.23310488        6 
C      -2.39799574      -1.74222502      -0.06948979        6 
C      -2.95762599      -0.49991455       0.18224936        6 
C      -2.18299868       0.66142529       0.24175014        6 
H       1.76693520       3.19319002      -1.51916636        1 
H       3.42421119      -2.03141614       1.00944800        1 
H      -4.02991954      -0.41864653       0.32330206        1 
H       2.26394972       3.27235403       0.18753546        1 
H       3.13863492       2.19359840      -0.94664643        1 
H       3.38156369      -0.80236655       2.31340857        1 
H       3.73870862      -0.32371464       0.62464781        1 
H      -3.03878780      -2.61615201      -0.12365615        1 
C      -2.89895383       1.96968213       0.47944974        6 
C      -0.44642821      -3.27612286      -0.46738144        6 
H       0.01992857      -3.34872398      -1.45184057        1 
H      -1.23277407      -4.02985731      -0.39905588        1 
H       0.32281933      -3.52609534       0.26864398        1 
H      -2.84773216       2.61821182      -0.39720848        1 
H      -2.45723645       2.53342407       1.30175020        1 
H      -3.94848352       1.77378362       0.70938934        1 
