30
Lattice="0.0 0.0 0.0 0.0 0.0 0.0 0.0 0.0 0.0" Properties=species:S:1:pos:R:3:Z:I:1 pbc="F F F"
C      -0.02345682      -0.76215115       0.14510716        6 
C      -0.86074390       0.34688758      -0.12835385        6 
C       1.47818262      -0.67816820       0.10379282        6 
C      -0.38625752       1.74335309       0.14947248        6 
O       1.88635919      -0.31420549      -1.12814585        8 
O       2.22784801      -1.08202848       0.96030775        8 
O       0.95539544       1.87088893       0.14468024        8 
O      -1.11442834       2.65861441       0.46244916        8 
C       1.47293023       3.13791075       0.58523195        6 
C       3.30737079      -0.24259082      -1.32368814        6 
C      -0.55015660      -2.06256391       0.23182736        6 
C      -1.91647445      -2.22900026      -0.00460089        6 
C      -2.72747327      -1.15669967      -0.34017081        6 
C      -2.23599728       0.14968587      -0.38428072        6 
H       1.14993713       3.93576260      -0.08488458        1 
H       3.73708048       0.52669278      -0.67908324        1 
H      -3.77699127      -1.32883100      -0.55370034        1 
H       1.13174048       3.35728754       1.59785037        1 
H       2.55501817       3.03010267       0.56048215        1 
H       3.44266227       0.01882835      -2.37084817        1 
H       3.77750002      -1.20139977      -1.10039089        1 
H      -2.34220860      -3.22546757       0.04866050        1 
C      -3.20786988       1.26073926      -0.70472829        6 
C       0.30387020      -3.27598273       0.52047693        6 
H       1.10581727      -3.38890868      -0.21441851        1 
H      -0.30680990      -4.18003599       0.49147505        1 
H       0.77874418      -3.20613513       1.50029768        1 
H      -2.77617079       2.01307708      -1.36486285        1 
H      -3.51872785       1.78450308       0.20174626        1 
H      -4.09494634       0.84245800      -1.18589873        1 
