30
Lattice="0.0 0.0 0.0 0.0 0.0 0.0 0.0 0.0 0.0" Properties=species:S:1:pos:R:3:Z:I:1 pbc="F F F"
C       0.95641485       0.23328162       0.03282258        6 
C      -0.38110250       0.65814867       0.08828795        6 
C       1.28237607      -1.22425001       0.19129362        6 
C      -1.43837093      -0.38147090       0.31094696        6 
O       0.71333793      -1.95998039      -0.78636543        8 
O       1.96479790      -1.68427297       1.07143013        8 
O      -2.48015864      -0.23607207      -0.53143639        8 
O      -1.37619868      -1.25869427       1.14006862        8 
C      -3.55465220      -1.18163675      -0.37616637        6 
C       0.81168330      -3.38917910      -0.63494671        6 
C       2.00567040       1.14741776      -0.13161476        6 
C       1.66987330       2.49764413      -0.23857263        6 
C       0.34820699       2.92365618      -0.16474135        6 
C      -0.70648985       2.02278233      -0.00503697        6 
H      -3.19785592      -2.19519137      -0.56455477        1 
H       1.85557660      -3.69979607      -0.57762872        1 
H       0.12715516       3.98363942      -0.22963807        1 
H      -3.96792666      -1.12874971       0.63229697        1 
H      -4.30050139      -0.89412782      -1.11385222        1 
H       0.33407604      -3.80745867      -1.51835509        1 
H       0.28841889      -3.69869493       0.27136959        1 
H       2.45923339       3.22945096      -0.37280871        1 
C      -2.12394432       2.53900487       0.08672537        6 
C       3.44411454       0.69531433      -0.19514446        6 
H       3.76557230       0.28386234       0.76427097        1 
H       4.09889193       1.52815593      -0.45616010        1 
H       3.58385383      -0.09155308      -0.94199225        1 
H      -2.67015404       2.08456159       0.91689556        1 
H      -2.68489714       2.31748064      -0.82398410        1 
H      -2.12312447       3.62012766       0.23681576        1 
