30
Lattice="0.0 0.0 0.0 0.0 0.0 0.0 0.0 0.0 0.0" Properties=species:S:1:pos:R:3:Z:I:1 pbc="F F F"
C       0.52370943       0.55286711       0.11392372        6 
C      -0.87439706       0.44216806      -0.00297222        6 
C       1.41604518      -0.64328376       0.32688934        6 
C      -1.54883246      -0.88371928      -0.22267781        6 
O       2.16404009      -0.88254591      -0.77441646        8 
O       1.46716123      -1.31581267       1.32296752        8 
O      -1.17031517      -1.82199597       0.65628733        8 
O      -2.36073921      -1.08339069      -1.09773958        8 
C      -1.72470813      -3.13694404       0.47026362        6 
C       3.08019376      -1.99091813      -0.68405606        6 
C       1.14512764       1.81289729       0.15475818        6 
C       0.33366029       2.94495783       0.10344511        6 
C      -1.04841005       2.83743445       0.00711200        6 
C      -1.67978165       1.59665124      -0.06986358        6 
H      -2.81034145      -3.11309121       0.57675880        1 
H       3.80178206      -1.82513158       0.11752856        1 
H      -1.65389167       3.73714530      -0.01540641        1 
H      -1.47023343      -3.52055914      -0.51912184        1 
H      -1.27410051      -3.74763947       1.24906810        1 
H       3.58011680      -2.03237201      -1.64907393        1 
H       2.53812574      -2.91792024      -0.49103386        1 
H       0.79118450       3.92728913       0.15071016        1 
C      -3.18424777       1.53700215      -0.20363783        6 
C       2.64476257       1.94684603       0.27244002        6 
H       3.03629294       1.35581521       1.10564286        1 
H       2.92685941       2.98735475       0.43949224        1 
H       3.14141893       1.59883242      -0.63681924        1 
H      -3.62698729       0.79880003       0.46905041        1 
H      -3.47877461       1.25609840      -1.21676795        1 
H      -3.61844669       2.51119356       0.02869959        1 
