30
Lattice="0.0 0.0 0.0 0.0 0.0 0.0 0.0 0.0 0.0" Properties=species:S:1:pos:R:3:Z:I:1 pbc="F F F"
C       0.82590740       0.40000413      -0.17069613        6 
C      -0.56822088       0.47556617       0.06620726        6 
C       1.54278889      -0.92443059      -0.17041074        6 
C      -1.34525373      -0.77956092      -0.21026078        6 
O       1.39149789      -1.53784462       1.02058509        8 
O       2.30734371      -1.29986477      -1.02576107        8 
O      -2.68202517      -0.59816725      -0.21360950        8 
O      -0.85318191      -1.86386335      -0.43089750        8 
C      -3.47504315      -1.76475793      -0.49887060        6 
C       1.94230316      -2.86202471       1.11551561        6 
C       1.62693036       1.54699259      -0.22148695        6 
C       1.00257732       2.77625915       0.00396565        6 
C      -0.35016285       2.85553516       0.29619193        6 
C      -1.17511030       1.72577556       0.31932214        6 
H      -3.23722099      -2.15515465      -1.48920987        1 
H       1.42214324      -3.52354517       0.42020380        1 
H      -0.79209493       3.82544938       0.49673701        1 
H      -3.29345961      -2.54130380       0.24539286        1 
H      -4.50798781      -1.42546188      -0.45695791        1 
H       1.76776858      -3.17568848       2.14252561        1 
H       3.00944115      -2.85739003       0.88914311        1 
H       1.59628701       3.68360704      -0.02737101        1 
C      -2.64086445       1.94379484       0.62290067        6 
C       3.11315232       1.48798745      -0.48261829        6 
H       3.62372354       0.84140567       0.23640054        1 
H       3.54936733       2.48547500      -0.41183354        1 
H       3.32184017       1.08062918      -1.47338812        1 
H      -3.01144731       1.24806362       1.37583272        1 
H      -3.26067592       1.80559639      -0.26550109        1 
H      -2.78834743       2.96180143       0.98865347        1 
