30
Lattice="0.0 0.0 0.0 0.0 0.0 0.0 0.0 0.0 0.0" Properties=species:S:1:pos:R:3:Z:I:1 pbc="F F F"
C       0.74387702       0.46536655       0.14072801        6 
C      -0.65241515       0.44540525      -0.03968185        6 
C       1.52202528      -0.81312205       0.32270663        6 
C      -1.31197754      -0.89838116       0.00151557        6 
O       1.96845246      -1.27832246      -0.85474500        8 
O       1.79856439      -1.29085381       1.39570019        8 
O      -2.60575657      -0.84665519       0.37573387        8 
O      -0.75253624      -1.94414896      -0.24190109        8 
C      -3.29171947      -2.11047525       0.44856642        6 
C       2.63297841      -2.55488075      -0.81110310        6 
C       1.46327311       1.66475747       0.17168412        6 
C       0.74924616       2.84942692      -0.00431510        6 
C      -0.62424874       2.83839302      -0.21472083        6 
C      -1.36129174       1.65207350      -0.23069772        6 
H      -3.28294539      -2.60644086      -0.52307653        1 
H       3.50879433      -2.51271489      -0.16199788        1 
H      -1.14422811       3.77736089      -0.37041995        1 
H      -2.81730902      -2.75826153       1.18679371        1 
H      -4.30913939      -1.86745657       0.74729213        1 
H       2.92328766      -2.76506751      -1.83807488        1 
H       1.94005465      -3.31383487      -0.44476293        1 
H       1.27986990       3.79551239       0.01247364        1 
C      -2.85077491       1.74086424      -0.47881207        6 
C       2.95773689       1.67353138       0.38220349        6 
H       3.22365347       1.20352107       1.33266698        1 
H       3.34283211       2.69407860       0.38475611        1 
H       3.46905823       1.11904755      -0.41023522        1 
H      -3.41997389       1.51913983       0.42618214        1 
H      -3.18335931       1.03416783      -1.24110058        1 
H      -3.10891271       2.74824414      -0.81081578        1 
