30
Lattice="0.0 0.0 0.0 0.0 0.0 0.0 0.0 0.0 0.0" Properties=species:S:1:pos:R:3:Z:I:1 pbc="F F F"
C       0.61141386       0.48042133       0.04017406        6 
C      -0.78410895       0.41444915      -0.17572331        6 
C       1.36312526      -0.79514678      -0.19552867        6 
C      -1.51922342      -0.90070110      -0.22764188        6 
O       2.70375933      -0.65513095      -0.17951084        8 
O       0.83972339      -1.86862570      -0.39901022        8 
O      -1.49084651      -1.50515631       0.97631706        8 
O      -2.20745117      -1.26828347      -1.14832429        8 
C      -2.12707127      -2.79305318       1.04128792        6 
C       3.45856391      -1.85544849      -0.42848331        6 
C       1.22708713       1.72936388       0.28100617        6 
C       0.40714742       2.86217855       0.27767564        6 
C      -0.95470780       2.78850570       0.02493650        6 
C      -1.58543640       1.56298278      -0.19461423        6 
H      -3.17797719      -2.72085574       0.75658513        1 
H       3.24386837      -2.60545051       0.33401172        1 
H      -1.54777456       3.69701239       0.01863109        1 
H      -1.61595866      -3.49027211       0.37507556        1 
H      -2.03046471      -3.11259792       2.07670454        1 
H       4.50228762      -1.55157324      -0.38721516        1 
H       3.21280330      -2.26315196      -1.40986267        1 
H       0.85751660       3.83006614       0.46844929        1 
C      -3.07950533       1.50406743      -0.41658253        6 
C       2.69889718       1.93484257       0.55510933        6 
H       3.06218799       1.27090329       1.34019184        1 
H       2.87041549       2.96679162       0.86669289        1 
H       3.30512194       1.73667584      -0.33086630        1 
H      -3.56820991       0.84377054       0.30576148        1 
H      -3.31640068       1.11713216      -1.40939852        1 
H      -3.51734149       2.49810455      -0.31318670        1 
