30
Lattice="0.0 0.0 0.0 0.0 0.0 0.0 0.0 0.0 0.0" Properties=species:S:1:pos:R:3:Z:I:1 pbc="F F F"
C       0.70007214       0.38684388       0.01153645        6 
C      -0.70882672       0.35644058       0.13769720        6 
C       1.54938215      -0.80608208       0.36810124        6 
C      -1.42017609      -0.97457403       0.10717826        6 
O       2.40069757      -1.12595947      -0.63589538        8 
O       1.46303588      -1.43667522       1.38692866        8 
O      -2.51494344      -0.89970503      -0.69333064        8 
O      -1.08027280      -2.00588006       0.62669673        8 
C      -3.27346847      -2.11312577      -0.83238195        6 
C       3.24703335      -2.26554886      -0.39378592        6 
C       1.37086046       1.60732856      -0.19161570        6 
C       0.61034022       2.77676086      -0.23729024        6 
C      -0.76330766       2.75116528      -0.05083981        6 
C      -1.45471383       1.55125795       0.12314553        6 
H      -2.65772594      -2.90149064      -1.26809042        1 
H       3.90306498      -2.08142253       0.45893252        1 
H      -1.31854461       3.68306541      -0.04052472        1 
H      -3.64549042      -2.44755100       0.13773983        1 
H      -4.09964933      -1.86231403      -1.49447167        1 
H       3.82923091      -2.39244453      -1.30398006        1 
H       2.64212092      -3.15112797      -0.19410323        1 
H       1.11234063       3.72735190      -0.38174337        1 
C      -2.95350755       1.61469632       0.32664883        6 
C       2.87550570       1.69798187      -0.30653688        6 
H       3.37479680       1.18894305       0.52253251        1 
H       3.19276202       2.74196729      -0.29637613        1 
H       3.23184870       1.23467454      -1.22847644        1 
H      -3.30583717       0.87138501       1.04308842        1 
H      -3.49001705       1.44076031      -0.60861085        1 
H      -3.22984734       2.60241806       0.70194128        1 
