30
Lattice="0.0 0.0 0.0 0.0 0.0 0.0 0.0 0.0 0.0" Properties=species:S:1:pos:R:3:Z:I:1 pbc="F F F"
C       0.71098997       0.43480314      -0.00403283        6 
C      -0.69550901       0.41135573      -0.12210693        6 
C       1.54392525      -0.77203754      -0.36011690        6 
C      -1.35653385      -0.93691095      -0.06808128        6 
O       2.15169951      -1.29956180       0.72145029        8 
O       1.64769022      -1.21040558      -1.47509253        8 
O      -2.58885259      -0.87966154       0.48616303        8 
O      -0.86255958      -1.98058603      -0.42285131        8 
C      -3.28688753      -2.13280154       0.59468241        6 
C       2.91943242      -2.49563853       0.47998320        6 
C       1.40354081       1.63822680       0.18772208        6 
C       0.66051947       2.81788472       0.23740838        6 
C      -0.71641439       2.80636374       0.06204559        6 
C      -1.42932419       1.61658604      -0.10361609        6 
H      -3.41353673      -2.58696612      -0.38908782        1 
H       2.27064853      -3.28107963       0.08982918        1 
H      -1.25989584       3.74511200       0.05843103        1 
H      -2.73719390      -2.82142364       1.23810859        1 
H      -4.25209147      -1.88700401       1.03267192        1 
H       3.32896026      -2.77728846       1.44751398        1 
H       3.71931281      -2.29963878      -0.23563679        1 
H       1.17407615       3.76262379       0.38115717        1 
C      -2.92903449       1.70941275      -0.28378367        6 
C       2.90955715       1.66896502       0.29826145        6 
H       3.24995448       1.14832445       1.19655193        1 
H       3.27268984       2.69693863       0.33610224        1 
H       3.37923195       1.17839039      -0.55963775        1 
H      -3.45671843       1.47121232       0.64223604        1 
H      -3.29707526       1.02139876      -1.04559478        1 
H      -3.19815737       2.72498865      -0.58143727        1 
