30
Lattice="0.0 0.0 0.0 0.0 0.0 0.0 0.0 0.0 0.0" Properties=species:S:1:pos:R:3:Z:I:1 pbc="F F F"
C       0.83606379       0.39435217      -0.14904653        6 
C      -0.55244508       0.39888880       0.12507434        6 
C       1.66133869      -0.86399425      -0.17011990        6 
C      -1.36886047      -0.86993098       0.00693882        6 
O       1.42982632      -1.61658545       0.91143838        8 
O       2.55110135      -1.09143462      -0.95978100        8 
O      -2.42455545      -0.64363940      -0.81600495        8 
O      -1.15387485      -1.95542054       0.48224190        8 
C      -3.30882458      -1.75852202      -1.02548891        6 
C       2.13315588      -2.86761338       0.99055424        6 
C       1.54214492       1.60822200      -0.26437049        6 
C       0.84067769       2.79459526      -0.03941114        6 
C      -0.50426282       2.79228105       0.29786534        6 
C      -1.23471403       1.60542205       0.36584297        6 
H      -2.77240879      -2.59342989      -1.47873553        1 
H       1.91500404      -3.47962759       0.11409155        1 
H      -1.00534846       3.73224065       0.50370001        1 
H      -3.74425965      -2.08527243      -0.07941050        1 
H      -4.08210800      -1.39036232      -1.69642421        1 
H       1.75890386      -3.34789924       1.89136293        1 
H       3.20971216      -2.70107714       1.05650952        1 
H       1.37222143       3.73759112      -0.10701416        1 
C      -2.70397473       1.67474800       0.72118161        6 
C       3.01677642       1.68007417      -0.58477507        6 
H       3.61259158       1.06477629       0.09354845        1 
H       3.36395963       2.71150498      -0.50569642        1 
H       3.21966789       1.31470373      -1.59262190        1 
H      -3.02017002       0.83085414       1.33701970        1 
H      -3.32669528       1.67333125      -0.17632595        1 
H      -2.90823354       2.59142896       1.27834579        1 
