30
Lattice="0.0 0.0 0.0 0.0 0.0 0.0 0.0 0.0 0.0" Properties=species:S:1:pos:R:3:Z:I:1 pbc="F F F"
C      -0.57651249      -0.63974466       0.12714505        6 
C      -0.39074218       0.74294584      -0.15133183        6 
C       0.52937550      -1.61971127      -0.14545958        6 
C       0.94726185       1.38483497       0.06833015        6 
O       1.60040911      -1.04392611      -0.73777813        8 
O       0.43701651      -2.82302761      -0.04578354        8 
O       1.56224030       0.83596825       1.14141068        8 
O       1.35931020       2.37901523      -0.48177578        8 
C       2.86136365       1.35868408       1.45339026        6 
C       2.64747800      -1.93419624      -1.15303296        6 
C      -1.87379909      -1.15616228       0.32431004        6 
C      -2.95071390      -0.27077278       0.18896207        6 
C      -2.76882056       1.05060928      -0.17373637        6 
C      -1.48979825       1.59835569      -0.33487909        6 
H       3.54653565       1.19078966       0.61961882        1 
H       3.07910439      -2.44653472      -0.29126875        1 
H      -3.63458630       1.69055084      -0.30559266        1 
H       2.80883624       2.42796150       1.66347867        1 
H       3.19024187       0.81035333       2.33361077        1 
H       3.38905508      -1.29944896      -1.63326803        1 
H       2.26414998      -2.67659172      -1.85480224        1 
H      -3.95639458      -0.64703819       0.34285876        1 
C      -1.36819683       3.06855499      -0.65685695        6 
C      -2.19143238      -2.59873935       0.64225465        6 
H      -2.00595542      -3.24801474      -0.21671878        1 
H      -3.24413815      -2.68576414       0.92076189        1 
H      -1.57724586      -2.98533616       1.45490999        1 
H      -0.83757137       3.22771323      -1.59632713        1 
H      -0.80772393       3.60931546       0.10924485        1 
H      -2.36184083       3.51420604      -0.73467370        1 
