30
Lattice="0.0 0.0 0.0 0.0 0.0 0.0 0.0 0.0 0.0" Properties=species:S:1:pos:R:3:Z:I:1 pbc="F F F"
C       0.84821954       0.38544499      -0.05785840        6 
C      -0.55050605       0.55263290      -0.06458113        6 
C       1.46886486      -0.97451736      -0.24514404        6 
C      -1.37773217      -0.68624832      -0.21796479        6 
O       1.37061696      -1.71385703       0.87636350        8 
O       2.02302632      -1.33332596      -1.25232069        8 
O      -2.60826498      -0.57348031       0.32238485        8 
O      -0.99197188      -1.70893707      -0.73754215        8 
C      -3.45259393      -1.73444188       0.21547993        6 
C       1.78752281      -3.08757612       0.75625714        6 
C       1.71755652       1.47342709       0.08052313        6 
C       1.14903259       2.74098784       0.20065558        6 
C      -0.22828077       2.91936763       0.16336467        6 
C      -1.11165449       1.84508465       0.03390214        6 
H      -3.59801453      -2.00740788      -0.83062905        1 
H       1.16151466      -3.59467896       0.02033690        1 
H      -0.63342335       3.92284477       0.23370205        1 
H      -3.00936017      -2.57772320       0.74730549        1 
H      -4.39633260      -1.44619904       0.67355173        1 
H       1.64813141      -3.52017500       1.74459409        1 
H       2.83339070      -3.14966481       0.45220917        1 
H       1.79570114       3.60463028       0.31398663        1 
C      -2.59345811       2.14262648      -0.02092904        6 
C       3.21479279       1.28406462       0.09214721        6 
H       3.51425607       0.52041685       0.81563320        1 
H       3.71991907       2.21494324       0.35448248        1 
H       3.57607414       0.95916844      -0.88701753        1 
H      -3.10084816       1.81130011       0.88709386        1 
H      -3.08179534       1.63809808      -0.85649493        1 
H      -2.74900726       3.21716100      -0.13208596        1 
