30
Lattice="0.0 0.0 0.0 0.0 0.0 0.0 0.0 0.0 0.0" Properties=species:S:1:pos:R:3:Z:I:1 pbc="F F F"
C       0.78535674       0.43049644       0.05145114        6 
C      -0.62122834       0.50497739       0.08113182        6 
C       1.50629773      -0.87124692       0.29688896        6 
C      -1.35616470      -0.79794996       0.14751128        6 
O       1.68163692      -1.56298732      -0.84459491        8 
O       1.91490629      -1.21683818       1.37544187        8 
O      -2.62474065      -0.72013181      -0.30512014        8 
O      -0.87336498      -1.84026795       0.52900263        8 
C      -3.37709708      -1.94687815      -0.28692632        6 
C       2.24943732      -2.87865912      -0.69388703        6 
C       1.57904216       1.57327665      -0.09878050        6 
C       0.92912945       2.80235547      -0.19970846        6 
C      -0.45566326       2.89115456      -0.12784729        6 
C      -1.26572368       1.76129803       0.00521732        6 
H      -2.91012213      -2.68937202      -0.93571019        1 
H       3.23824881      -2.82123856      -0.23680826        1 
H      -0.92538204       3.86719615      -0.17931359        1 
H      -3.43770171      -2.34451486       0.72704738        1 
H      -4.36551683      -1.68240088      -0.65678299        1 
H       2.31386653      -3.28341615      -1.70161799        1 
H       1.59411126      -3.49023309      -0.07189198        1 
H       1.51691883       3.70635893      -0.32027437        1 
C      -2.76196521       1.96600071       0.08478031        6 
C       3.08438802       1.47519869      -0.13731376        6 
H       3.47848476       1.11139039       0.81562942        1 
H       3.53206330       2.44856102      -0.34323938        1 
H       3.41480862       0.77908953      -0.91367034        1 
H      -3.20589923       1.41721251       0.91674842        1 
H      -3.26187526       1.62063942      -0.82218667        1 
H      -2.98120780       3.02710030       0.21745262        1 
