30
Lattice="0.0 0.0 0.0 0.0 0.0 0.0 0.0 0.0 0.0" Properties=species:S:1:pos:R:3:Z:I:1 pbc="F F F"
C       0.73225747       0.31911930       0.14224163        6 
C      -0.68118262       0.32043301      -0.08657749        6 
C       1.44402885      -0.98010813      -0.16764204        6 
C      -1.48038268      -0.86214213       0.40956408        6 
O       2.78770453      -0.83394754      -0.25696030        8 
O       0.91780167      -2.04868854      -0.35589664        8 
O      -2.64622029      -1.02371449      -0.25871092        8 
O      -1.11776153      -1.62184389       1.26993442        8 
C      -3.44782676      -2.14585618       0.15077478        6 
C       3.51694737      -2.02882023      -0.58538475        6 
C       1.43267186       1.53309227       0.26546850        6 
C       0.71443156       2.72291027       0.08018120        6 
C      -0.62264696       2.71960907      -0.26111742        6 
C      -1.36381993       1.53057784      -0.31331762        6 
H      -2.90091881      -3.07731867      -0.00298161        1 
H       3.34482213      -2.80036038       0.16647596        1 
H      -1.13040248       3.66174756      -0.43756726        1 
H      -3.71955291      -2.06145171       1.20440982        1 
H      -4.33535122      -2.11194982      -0.47786899        1 
H       4.56358519      -1.73167883      -0.60189800        1 
H       3.20885517      -2.40952940      -1.56055052        1 
H       1.23575783       3.66877246       0.18066036        1 
C      -2.85285602       1.65479807      -0.56278154        6 
C       2.90264861       1.67083931       0.59534884        6 
H       3.22442956       0.94770522       1.34310961        1 
H       3.08983118       2.67645847       0.97844469        1 
H       3.52852165       1.51848572      -0.28639632        1 
H      -3.44158836       1.29687300       0.28469509        1 
H      -3.16537762       1.07299133      -1.42994487        1 
H      -3.10778831       2.70233622      -0.73309368        1 
