30
Lattice="0.0 0.0 0.0 0.0 0.0 0.0 0.0 0.0 0.0" Properties=species:S:1:pos:R:3:Z:I:1 pbc="F F F"
C       0.74275972       0.46428091       0.08117944        6 
C      -0.66785138       0.47066453       0.04377003        6 
C       1.51129918      -0.80528650       0.35525564        6 
C      -1.32985177      -0.87271006       0.03340301        6 
O       1.98483876      -1.35072396      -0.77847060        8 
O       1.73234810      -1.22623411       1.46266855        8 
O      -2.67630094      -0.82371864      -0.01713432        8 
O      -0.73227938      -1.92583547       0.06765747        8 
C      -3.35348179      -2.09332286      -0.03195256        6 
C       2.63048757      -2.62944726      -0.63027511        6 
C       1.48759340       1.64560827       0.00298545        6 
C       0.78700931       2.84523744      -0.11441295        6 
C      -0.60094741       2.86639124      -0.13749490        6 
C      -1.36472857       1.69839598      -0.06484411        6 
H      -3.05350340      -2.67682650      -0.90347813        1 
H       3.50543189      -2.54815637       0.01663231        1 
H      -1.11354846       3.81844560      -0.21909826        1 
H      -3.12648543      -2.65837515       0.87315903        1 
H      -4.41325048      -1.85140878      -0.07827804        1 
H       2.92178867      -2.92541580      -1.63573353        1 
H       1.92661208      -3.34646671      -0.20520041        1 
H       1.33735363       3.77792447      -0.17991044        1 
C      -2.86918911       1.84560747      -0.10925616        6 
C       2.99636203       1.62439657       0.05604453        6 
H       3.35061865       1.15538914       0.97828054        1 
H       3.39915863       2.63712486       0.01296150        1 
H       3.41188689       1.05508840      -0.77993178        1 
H      -3.34518012       1.40657264       0.76881450        1 
H      -3.30059222       1.34720686      -0.97917248        1 
H      -3.13241295       2.90418415      -0.15248253        1 
