30
Lattice="0.0 0.0 0.0 0.0 0.0 0.0 0.0 0.0 0.0" Properties=species:S:1:pos:R:3:Z:I:1 pbc="F F F"
C       0.96527614       0.06847921      -0.15364574        6 
C      -0.35095495       0.57492612       0.07630589        6 
C       1.26027967      -1.38955346       0.09356215        6 
C      -1.48476883      -0.27356468      -0.44106103        6 
O       0.26233290      -1.99970087       0.76778181        8 
O       2.34078079      -1.91833894      -0.04725039        8 
O      -2.70088245       0.12260494      -0.00262212        8 
O      -1.34773226      -1.23740476      -1.15592215        8 
C      -3.81810884      -0.64998758      -0.47497061        6 
C       0.46519540      -3.38352748       1.08607304        6 
C       2.06688935       0.93758250      -0.22357847        6 
C       1.83292749       2.30050043       0.00843752        6 
C       0.58021704       2.77397406       0.34361259        6 
C      -0.54827041       1.94012638       0.35472290        6 
H      -3.88017130      -0.61147018      -1.56369619        1 
H       0.60719890      -3.96783488       0.17517305        1 
H       0.45034304       3.82910927       0.55841707        1 
H      -3.72179954      -1.69020995      -0.16056799        1 
H      -4.69603303      -0.19178485      -0.02395800        1 
H      -0.44264619      -3.69569733       1.59833573        1 
H       1.33448805      -3.50927717       1.73388258        1 
H       2.66792149       2.99035258      -0.04415380        1 
C      -1.88524575       2.59502839       0.62766409        6 
C       3.48428832       0.49975574      -0.50439310        6 
H       3.89784013      -0.07906114       0.32466771        1 
H       4.11224450       1.37859359      -0.66519050        1 
H       3.54177815      -0.14435831      -1.38153180        1 
H      -2.42362098       2.09526591       1.43287091        1 
H      -2.53674473       2.57007526      -0.24818713        1 
H      -1.72826003       3.63855427       0.90685101        1 
