30
Lattice="0.0 0.0 0.0 0.0 0.0 0.0 0.0 0.0 0.0" Properties=species:S:1:pos:R:3:Z:I:1 pbc="F F F"
C       0.73009131       0.48303921      -0.12678315        6 
C      -0.64039008       0.46240398       0.15129021        6 
C       1.45714473      -0.82445271      -0.28213232        6 
C      -1.33259131      -0.86902186       0.21491700        6 
O       2.03627081      -1.20264384       0.86616297        8 
O       1.53289968      -1.44326340      -1.31708075        8 
O      -2.24069526      -0.99335741      -0.77058297        8 
O      -1.12254121      -1.72329500       1.04290608        8 
C      -2.97652260      -2.23295417      -0.80302982        6 
C       2.68646823      -2.48998512       0.85337031        6 
C       1.42525444       1.69058460      -0.25990204        6 
C       0.69905405       2.87091340      -0.09830496        6 
C      -0.66352088       2.85194206       0.19005964        6 
C      -1.36700766       1.65257767       0.30482948        6 
H      -2.29359158      -3.07513393      -0.91955011        1 
H       1.96371146      -3.26861117       0.60664997        1 
H      -1.19381259       3.78919341       0.32195495        1 
H      -3.55259436      -2.35809700       0.11543248        1 
H      -3.63689622      -2.15233964      -1.66328316        1 
H       3.06788110      -2.62847370       1.86213015        1 
H       3.49931195      -2.50114372       0.12572871        1 
H       1.21054082       3.82271810      -0.19520061        1 
C      -2.85092575       1.64652438       0.58638328        6 
C       2.90140432       1.70197790      -0.56880821        6 
H       3.47505388       1.23462109       0.23727333        1 
H       3.26659320       2.72206118      -0.69630142        1 
H       3.11589480       1.14765399      -1.48717964        1 
H      -3.11624162       0.90069761       1.34065084        1 
H      -3.41789157       1.40900044      -0.31792467        1 
H      -3.17920396       2.62193444       0.94957233        1 
