30
Lattice="0.0 0.0 0.0 0.0 0.0 0.0 0.0 0.0 0.0" Properties=species:S:1:pos:R:3:Z:I:1 pbc="F F F"
C       0.60035840       0.42937976      -0.07051134        6 
C      -0.78324383       0.41157005       0.23042326        6 
C       1.34411117      -0.84772532       0.20584038        6 
C      -1.57796856      -0.86903103       0.21906939        6 
O       2.66751317      -0.65911472       0.39022956        8 
O       0.84076381      -1.94408717       0.30075778        8 
O      -1.47909126      -1.46660154      -0.98416858        8 
O      -2.38038984      -1.19709757       1.06045698        8 
C      -2.17661072      -2.71537170      -1.12365404        6 
C       3.42834830      -1.84076203       0.70144355        6 
C       1.24194348       1.64579482      -0.38216022        6 
C       0.46773088       2.81006035      -0.34495878        6 
C      -0.86990606       2.79201506       0.01849277        6 
C      -1.53401124       1.59423237       0.29533227        6 
H      -1.75869763      -3.45035722      -0.43346002        1 
H       3.06309566      -2.29704169       1.62243275        1 
H      -1.42561672       3.72297070       0.05790163        1 
H      -3.24186054      -2.59012129      -0.92308741        1 
H      -2.01269248      -3.02426545      -2.15377428        1 
H       4.45365580      -1.49770491       0.82162347        1 
H       3.35618273      -2.56654137      -0.10994163        1 
H       0.93530209       3.75592862      -0.59568853        1 
C      -3.01374552       1.61182224       0.60404146        6 
C       2.69435641       1.77840086      -0.77858942        6 
H       3.35239732       1.70883602       0.08976413        1 
H       2.85505494       2.74704212      -1.25603841        1 
H       3.00159163       0.99638792      -1.47345519        1 
H      -3.21628363       1.22072689       1.60231580        1 
H      -3.57941540       0.99015743      -0.09565061        1 
H      -3.39834009       2.63083807       0.53934002        1 
