30
Lattice="0.0 0.0 0.0 0.0 0.0 0.0 0.0 0.0 0.0" Properties=species:S:1:pos:R:3:Z:I:1 pbc="F F F"
C       0.71407613       0.44980077       0.05340412        6 
C      -0.69153499       0.44224305      -0.03584827        6 
C       1.40044477      -0.86634757       0.27978960        6 
C      -1.37474168      -0.87659160      -0.26071716        6 
O       2.47755309      -1.03327071      -0.50843283        8 
O       1.01966209      -1.69457355       1.07252515        8 
O      -2.45553050      -1.03862111       0.52428369        8 
O      -1.00073807      -1.70273085      -1.05863565        8 
C      -3.16383577      -2.28319536       0.37026062        6 
C       3.15237085      -2.29986998      -0.38329863        6 
C       1.42545410       1.65703919       0.11434150        6 
C       0.68796379       2.84324166       0.05614086        6 
C      -0.69553832       2.83523034      -0.05557306        6 
C      -1.41911303       1.64038146      -0.10614940        6 
H      -3.51171028      -2.40137038      -0.65716679        1 
H       3.49615714      -2.45214660       0.64080165        1 
H      -1.23165057       3.77668537      -0.11141111        1 
H      -2.51436620      -3.12018981       0.62975078        1 
H      -4.00531051      -2.22256425       1.05693078        1 
H       3.99455526      -2.24687502      -1.06954507        1 
H       2.47831734      -3.11111377      -0.66189150        1 
H       1.21276716       3.79124701       0.10593145        1 
C      -2.92260196       1.68511506      -0.25989895        6 
C       2.92702238       1.71496499       0.26544753        6 
H       3.27566107       1.08952465       1.09130409        1 
H       3.24834625       2.73946600       0.46013795        1 
H       3.42726022       1.35955706      -0.63754725        1 
H      -3.42315686       1.33470338       0.64487370        1 
H      -3.26741356       1.05150728      -1.08123785        1 
H      -3.25049317       2.70592502      -0.46367230        1 
