30
Lattice="0.0 0.0 0.0 0.0 0.0 0.0 0.0 0.0 0.0" Properties=species:S:1:pos:R:3:Z:I:1 pbc="F F F"
C       0.77077618       0.45272817      -0.06169033        6 
C      -0.62765821       0.49531231      -0.15742355        6 
C       1.51274237      -0.82496446      -0.35425385        6 
C      -1.37522684      -0.80192134      -0.27182592        6 
O       1.78856133      -1.50513658       0.77914814        8 
O       1.79011460      -1.21460445      -1.45739779        8 
O      -2.31104628      -0.90791707       0.69815468        8 
O      -1.17965598      -1.66184454      -1.09483543        8 
C      -3.11190489      -2.10417574       0.67433733        6 
C       2.43031855      -2.78450322       0.60020911        6 
C       1.51739336       1.61762443       0.15863896        6 
C       0.82365777       2.82251616       0.26625025        6 
C      -0.56141729       2.87133094       0.14220054        6 
C      -1.31808189       1.71591643      -0.05338200        6 
H      -3.66584079      -2.17515399      -0.26333376        1 
H       1.79089009      -3.44427700       0.01180859        1 
H      -1.06820285       3.82848958       0.20334487        1 
H      -2.48203928      -2.98787801       0.78556568        1 
H      -3.79398643      -2.01111887       1.51660939        1 
H       2.57338451      -3.17882631       1.60378445        1 
H       3.38865549      -2.66483332       0.09282525        1 
H       1.37806600       3.74023610       0.43184978        1 
C      -2.82255263       1.80866685      -0.16523395        6 
C       3.02222651       1.56148470       0.25210296        6 
H       3.34291831       0.90221386       1.06385880        1 
H       3.43972975       2.55245734       0.43605584        1 
H       3.45853855       1.17703303      -0.67466733        1 
H      -3.30533163       1.50568464       0.76693495        1 
H      -3.21260260       1.16359868      -0.95608518        1 
H      -3.12318701       2.83365644      -0.39039407        1 
