30
Lattice="0.0 0.0 0.0 0.0 0.0 0.0 0.0 0.0 0.0" Properties=species:S:1:pos:R:3:Z:I:1 pbc="F F F"
C      -0.44237656      -0.70409360      -0.15105670        6 
C      -0.50489391       0.69113671       0.13150142        6 
C       0.81882964      -1.47258704       0.11972578        6 
C       0.68163168       1.56482461      -0.15705716        6 
O       1.57907780      -0.85391257       1.05320842        8 
O       1.05400427      -2.60005766      -0.25145914        8 
O       1.60652559       0.92427939      -0.90963354        8 
O       0.74850456       2.75535934       0.05202295        8 
C       2.73836707       1.70508293      -1.31983134        6 
C       2.78215813      -1.53810766       1.43200334        6 
C      -1.61742496      -1.45379278      -0.34290288        6 
C      -2.84058745      -0.78819360      -0.18624952        6 
C      -2.90166299       0.54026316       0.18744165        6 
C      -1.74714941       1.32135352       0.33369757        6 
H       2.42002660       2.55199477      -1.92975936        1 
H       2.55194758      -2.51602892       1.85783862        1 
H      -3.86917808       1.00615328       0.34086136        1 
H       3.28425370       2.07628979      -0.45056558        1 
H       3.35930375       1.02670535      -1.90130172        1 
H       3.25591650      -0.89900458       2.17406283        1 
H       3.43482571      -1.67082257       0.56682920        1 
H      -3.76070188      -1.34509162      -0.32751250        1 
C      -1.92637675       2.78275128       0.66814315        6 
C      -1.65181782      -2.92942877      -0.66648650        6 
H      -1.09052733      -3.15646806      -1.57328243        1 
H      -2.68668208      -3.25029420      -0.80264321        1 
H      -1.20519663      -3.53122192       0.12814122        1 
H      -1.62317459       3.42732367      -0.16002791        1 
H      -1.32024065       3.08014429       1.52392377        1 
H      -2.97697936       2.97698632       0.89388846        1 
