30
Lattice="0.0 0.0 0.0 0.0 0.0 0.0 0.0 0.0 0.0" Properties=species:S:1:pos:R:3:Z:I:1 pbc="F F F"
C       0.05743107      -0.72220427       0.06544706        6 
C      -0.99179683       0.22297419       0.02598718        6 
C       1.48676819      -0.33976886       0.34944771        6 
C      -0.70870195       1.69045042       0.00580905        6 
O       2.25017729      -0.44401454      -0.75396012        8 
O       1.91308085      -0.07114325       1.44467379        8 
O       0.60313982       1.95738316      -0.16356232        8 
O      -1.53881878       2.56905282       0.07058552        8 
C       0.97880162       3.34326521      -0.15572567        6 
C       3.65093548      -0.16838072      -0.57478768        6 
C      -0.19820940      -2.10011487      -0.01035131        6 
C      -1.52457802      -2.51288617      -0.13052991        6 
C      -2.56226470      -1.59399641      -0.16260237        6 
C      -2.33330122      -0.21818620      -0.08960990        6 
H       0.49842752       3.87255878      -0.97999580        1 
H       3.79413967       0.84966227      -0.20943081        1 
H      -3.58316151      -1.94944072      -0.24944644        1 
H       0.69304532       3.80869341       0.78838930        1 
H       2.06007356       3.34894658      -0.27357492        1 
H       4.09855538      -0.28970758      -1.55859166        1 
H       4.09047401      -0.86876417       0.13746922        1 
H      -1.74642312      -3.57338127      -0.19079773        1 
C      -3.53392030       0.69624905      -0.15097683        6 
C       0.91057315      -3.12536264       0.04937441        6 
H       1.55366122      -3.06372847      -0.83221646        1 
H       0.49579901      -4.13355822       0.09802586        1 
H       1.54256011      -2.98051745       0.92991540        1 
H      -3.47236057       1.39222792      -0.98959961        1 
H      -3.62128733       1.30980482       0.74684514        1 
H      -4.44176670       0.09904579      -0.25867436        1 
