30
Lattice="0.0 0.0 0.0 0.0 0.0 0.0 0.0 0.0 0.0" Properties=species:S:1:pos:R:3:Z:I:1 pbc="F F F"
C      -0.45411787      -0.70603346      -0.13069577        6 
C      -0.55173693       0.68994842       0.10681912        6 
C       0.85486900      -1.41715607       0.03931751        6 
C       0.64188518       1.57033249      -0.10266495        6 
O       1.56247303      -0.88884632       1.06540175        8 
O       1.18543160      -2.43273974      -0.52592988        8 
O       1.56334145       0.97530615      -0.89692695        8 
O       0.73747712       2.72781536       0.23550853        8 
C       2.73802738       1.74530019      -1.19200485        6 
C       2.83492921      -1.50117567       1.32510440        6 
C      -1.60487612      -1.50151088      -0.26840629        6 
C      -2.84520924      -0.86701163      -0.13368271        6 
C      -2.94325194       0.48291480       0.15226710        6 
C      -1.81172774       1.30003293       0.26400724        6 
H       2.47172599       2.66966929      -1.70658802        1 
H       2.71486346      -2.56328446       1.54339272        1 
H      -3.92399683       0.93067557       0.27149439        1 
H       3.27598867       1.98961689      -0.27393069        1 
H       3.34398110       1.11011990      -1.83467246        1 
H       3.23900272      -0.97501268       2.18727012        1 
H       3.49346779      -1.38594800       0.46167817        1 
H      -3.74972506      -1.45761599      -0.23351530        1 
C      -2.02191017       2.77372358       0.51666528        6 
C      -1.58068359      -2.99225368      -0.51729193        6 
H      -1.10046630      -3.22975929      -1.46745978        1 
H      -2.60082238      -3.38053265      -0.53157922        1 
H      -1.02085656      -3.52694974       0.25360154        1 
H      -1.62897101       3.38535756      -0.29855083        1 
H      -1.50926280       3.10359043       1.42059225        1 
H      -3.08926164       2.97880070       0.62025480        1 
