30
Lattice="0.0 0.0 0.0 0.0 0.0 0.0 0.0 0.0 0.0" Properties=species:S:1:pos:R:3:Z:I:1 pbc="F F F"
C       0.71883370       0.41931364      -0.01820982        6 
C      -0.69789267       0.41517769       0.01803652        6 
C       1.40133316      -0.88817704       0.27305404        6 
C      -1.40353665      -0.87357873      -0.31130184        6 
O       2.62064262      -0.99166894      -0.29251889        8 
O       0.90006899      -1.78297910       0.91132298        8 
O      -2.52578390      -1.05190072       0.41311992        8 
O      -1.00522162      -1.67452293      -1.12123622        8 
C      -3.24579463      -2.27314020       0.16374949        6 
C       3.29524257      -2.24749213      -0.09184985        6 
C       1.42958027       1.63234054      -0.00969991        6 
C       0.68583285       2.81877974       0.00321016        6 
C      -0.69800966       2.81177432       0.03473378        6 
C      -1.42525833       1.61602889       0.02650010        6 
H      -3.56668740      -2.32370419      -0.87813144        1 
H       3.46070968      -2.42876221       0.97136423        1 
H      -1.23602610       3.75364119       0.04650383        1 
H      -2.61576912      -3.13479027       0.38824677        1 
H      -4.10603803      -2.24149074       0.82893952        1 
H       4.24241376      -2.15313875      -0.61838943        1 
H       2.70221300      -3.06383453      -0.50638059        1 
H       1.21257511       3.76676932       0.00626783        1 
C      -2.93625217       1.68636458      -0.01405208        6 
C       2.93730735       1.73240777       0.02031777        6 
H       3.36437203       1.18904558       0.86596037        1 
H       3.23796910       2.77844543       0.10134045        1 
H       3.38258966       1.31063991      -0.88180306        1 
H      -3.38026539       1.27283382       0.89283029        1 
H      -3.34809866       1.12193574      -0.85413348        1 
H      -3.25797845       2.72429999      -0.11598266        1 
