30
Lattice="0.0 0.0 0.0 0.0 0.0 0.0 0.0 0.0 0.0" Properties=species:S:1:pos:R:3:Z:I:1 pbc="F F F"
C       1.00684679       0.06553225      -0.07981134        6 
C      -0.26710672       0.67520321      -0.01187245        6 
C       1.12656902      -1.42798897      -0.03236843        6 
C      -1.46503403      -0.14999453      -0.38769265        6 
O       0.13487637      -1.97918330       0.70371600        8 
O       2.04902850      -2.07393415      -0.47094799        8 
O      -2.52290188       0.07487993       0.41623666        8 
O      -1.48558415      -0.93750482      -1.30351846        8 
C      -3.71696916      -0.66737197       0.10834489        6 
C       0.09150954      -3.41482928       0.73514050        6 
C       2.17932439       0.83635588       0.00408909        6 
C       2.02910734       2.21904796       0.15559962        6 
C       0.77939654       2.81455890       0.22739994        6 
C      -0.39776192       2.06511224       0.13202464        6 
H      -4.07541722      -0.41920172      -0.89206148        1 
H      -0.09082681      -3.80489533      -0.26793073        1 
H       0.70840348       3.89133544       0.33847999        1 
H      -3.52227522      -1.73933025       0.16238850        1 
H      -4.44413244      -0.37055041       0.86102698        1 
H      -0.73512862      -3.66445658       1.39709845        1 
H       1.02785289      -3.82161016       1.11909288        1 
H       2.91754259       2.83708461       0.22511754        1 
C      -1.72935575       2.78208157       0.14285974        6 
C       3.56905839       0.24876532      -0.03843912        6 
H       3.70777722      -0.52138705       0.72364736        1 
H       4.31003595       1.03364568       0.12356639        1 
H       3.76679920      -0.23157044      -0.99775394        1 
H      -2.30131169       2.55044005       1.04351076        1 
H      -2.35169731       2.49875625      -0.70968469        1 
H      -1.57308998       3.86124961       0.10015889        1 
