30
Lattice="0.0 0.0 0.0 0.0 0.0 0.0 0.0 0.0 0.0" Properties=species:S:1:pos:R:3:Z:I:1 pbc="F F F"
C       0.92897596      -0.25662225       0.01216356        6 
C       0.03177923       0.80908508      -0.11214192        6 
C       0.45846746      -1.64815621      -0.29978790        6 
C      -1.43714455       0.54545380      -0.30198293        6 
O      -0.48837030      -2.07066828       0.56197006        8 
O       0.83138841      -2.29241857      -1.24915755        8 
O      -2.07080794       0.46260460       0.88139878        8 
O      -1.99842684       0.48991870      -1.36943862        8 
C      -3.48963614       0.22301336       0.82331484        6 
C      -1.09996821      -3.34012910       0.25727811        6 
C       2.29655230      -0.02618878       0.22906044        6 
C       2.71539197       1.29800112       0.35163897        6 
C       1.82103395       2.35795719       0.21897947        6 
C       0.46390954       2.13861752      -0.01416646        6 
H      -3.99502929       1.03723080       0.30126583        1 
H      -1.58723390      -3.29876553      -0.71821177        1 
H       2.18456149       3.37657246       0.30247733        1 
H      -3.69624603      -0.71611361       0.30737674        1 
H      -3.81537447       0.16986382       1.85967038        1 
H      -1.82986932      -3.50418225       1.04696086        1 
H      -0.35243902      -4.13449901       0.25381956        1 
H       3.76299414       1.50438611       0.54256261        1 
C      -0.51088401       3.28200431      -0.15695253        6 
C       3.27838989      -1.16880210       0.32291599        6 
H       2.92952696      -1.94330641       1.01216560        1 
H       4.24870447      -0.81632416       0.67633664        1 
H       3.41642008      -1.64482281      -0.65117008        1 
H      -1.29885196       3.22847897       0.60098924        1 
H      -0.99839656       3.26359774      -1.13574783        1 
H      -0.00466335       4.24217621      -0.04797583        1 
