30
Lattice="0.0 0.0 0.0 0.0 0.0 0.0 0.0 0.0 0.0" Properties=species:S:1:pos:R:3:Z:I:1 pbc="F F F"
C      -0.25559350      -0.75535064      -0.17590983        6 
C      -0.69124935       0.56450523       0.11739472        6 
C       1.18286330      -1.16283453      -0.02535163        6 
C       0.21409684       1.73397401      -0.14270055        6 
O       1.65963017      -0.74978927       1.16900716        8 
O       1.78007632      -1.92918301      -0.74316854        8 
O       1.48208413       1.37315349      -0.43308240        8 
O      -0.15595930       2.88245077      -0.24657757        8 
C       2.36018473       2.42492583      -0.86444803        6 
C       3.02089421      -1.10368944       1.45440004        6 
C      -1.17658727      -1.80463715      -0.33649975        6 
C      -2.53033767      -1.51338736      -0.13878326        6 
C      -2.95207649      -0.24903580       0.23249547        6 
C      -2.06033123       0.82267286       0.34482531        6 
H       1.97140901       2.90014426      -1.76635378        1 
H       3.14966639      -2.18727909       1.44642754        1 
H      -4.00641731      -0.07281885       0.41682928        1 
H       2.47035769       3.17658054      -0.08156458        1 
H       3.31142586       1.93794082      -1.06792575        1 
H       3.22396301      -0.70062231       2.44416018        1 
H       3.68984157      -0.65855330       0.71501187        1 
H      -3.26049377      -2.30817136      -0.24932415        1 
C      -2.63421504       2.17673500       0.68850363        6 
C      -0.78091916      -3.22654426      -0.66596001        6 
H      -0.28378371      -3.28863124      -1.63486591        1 
H      -1.66832627      -3.86179753      -0.68607377        1 
H      -0.08559955      -3.63952781       0.06921662        1 
H      -2.65746250       2.83077019      -0.18553865        1 
H      -2.04545401       2.69501538       1.44535961        1 
H      -3.65422697       2.05403359       1.05980256        1 
