30
Lattice="0.0 0.0 0.0 0.0 0.0 0.0 0.0 0.0 0.0" Properties=species:S:1:pos:R:3:Z:I:1 pbc="F F F"
C       0.75920654       0.45268162       0.16513271        6 
C      -0.62601463       0.42551124      -0.08416964        6 
C       1.56002665      -0.81835993       0.28072329        6 
C      -1.31211228      -0.90443035       0.02676764        6 
O       1.82560153      -1.32444774      -0.93300903        8 
O       2.02195055      -1.24409134       1.31206851        8 
O      -2.55396068      -0.79670342       0.54332547        8 
O      -0.82515920      -1.97216861      -0.26623820        8 
C      -3.28292437      -2.02891270       0.69550156        6 
C       2.50409331      -2.59382902      -0.95245806        6 
C       1.46563381       1.65952557       0.23589133        6 
C       0.75121782       2.83802255       0.02136453        6 
C      -0.60744380       2.81632640      -0.27030496        6 
C      -1.33275387       1.62409003      -0.31513223        6 
H      -3.41174349      -2.51800730      -0.27129184        1 
H       3.44687362      -2.53678063      -0.40696622        1 
H      -1.12390217       3.75062043      -0.46233450        1 
H      -2.75479190      -2.70267548       1.37140689        1 
H      -4.24590707      -1.74287885       1.11297345        1 
H       2.67713145      -2.81271193      -2.00372344        1 
H       1.86370017      -3.35509173      -0.50411375        1 
H       1.27320016       3.78803811       0.06468995        1 
C      -2.80896827       1.68859620      -0.63814898        6 
C       2.94781643       1.68586286       0.51888751        6 
H       3.16529453       1.27652812       1.50832534        1 
H       3.33124671       2.70596435       0.47251197        1 
H       3.50032511       1.08304258      -0.20816967        1 
H      -3.41802769       1.57156497       0.26085603        1 
H      -3.11263976       0.90403141      -1.33310642        1 
H      -3.04650950       2.65386886      -1.08975116        1 
