30
Lattice="0.0 0.0 0.0 0.0 0.0 0.0 0.0 0.0 0.0" Properties=species:S:1:pos:R:3:Z:I:1 pbc="F F F"
C       0.87525068       0.34578912       0.05152676        6 
C      -0.48718798       0.63789856       0.16720223        6 
C       1.34744516      -1.05360546       0.33527701        6 
C      -1.45598279      -0.49666204       0.34353122        6 
O       1.18261237      -1.85449690      -0.73876075        8 
O       1.75458467      -1.43503940       1.40185532        8 
O      -2.21213315      -0.65993690      -0.76171681        8 
O      -1.57075105      -1.17294182       1.33604562        8 
C      -3.19811769      -1.70899947      -0.70371890        6 
C       1.49200408      -3.24945266      -0.53708495        6 
C       1.81454298       1.35762643      -0.18399574        6 
C       1.33972885       2.66297262      -0.30858424        6 
C      -0.01663383       2.95537671      -0.18540098        6 
C      -0.95949950       1.95204844       0.03886774        6 
H      -2.71707161      -2.67450545      -0.54106031        1 
H       2.54077725      -3.37338672      -0.26377460        1 
H      -0.35159555       3.98368662      -0.27161424        1 
H      -3.90819478      -1.52082171       0.10304703        1 
H      -3.69804125      -1.68828277      -1.66948259        1 
H       1.28411024      -3.73123900      -1.48983688        1 
H       0.86246375      -3.66201940       0.25269038        1 
H       2.04426550       3.46640601      -0.49447299        1 
C      -2.43217022       2.27321149       0.13599691        6 
C       3.28499978       1.03408047      -0.28351511        6 
H       3.66396273       0.64598578       0.66624760        1 
H       3.86429154       1.92075526      -0.54514120        1 
H       3.47268497       0.27144221      -1.04556468        1 
H      -2.89927877       1.76838165       0.98644484        1 
H      -2.96195457       1.95106042      -0.76490246        1 
H      -2.58623014       3.34652280       0.25818600        1 
