30
Lattice="0.0 0.0 0.0 0.0 0.0 0.0 0.0 0.0 0.0" Properties=species:S:1:pos:R:3:Z:I:1 pbc="F F F"
C      -0.56451498      -0.64329315      -0.12091710        6 
C      -0.38787991       0.73931949       0.16890966        6 
C       0.53984509      -1.62152572       0.16877016        6 
C       0.93890145       1.39759704      -0.07283517        6 
O       1.61869323      -1.04018171       0.73999670        8 
O       0.43797434      -2.82651866       0.10134700        8 
O       1.55981932       0.82814344      -1.13225959        8 
O       1.32962682       2.42319526       0.43404298        8 
C       2.83759964       1.37843270      -1.48102098        6 
C       2.66089781      -1.92932644       1.16951661        6 
C      -1.85642140      -1.16437269      -0.33721238        6 
C      -2.94010477      -0.28703650      -0.20197318        6 
C      -2.76932859       1.03009748       0.17973215        6 
C      -1.49481424       1.58512015       0.35388962        6 
H       2.75041352       2.43908551      -1.72139260        1 
H       2.27949645      -2.64307795       1.90148148        1 
H      -3.64000756       1.66297596       0.31307800        1 
H       3.54164059       1.25519216      -0.65521532        1 
H       3.16780443       0.81393434      -2.35050920        1 
H       3.41748775      -1.28845712       1.61712829        1 
H       3.07308760      -2.47567024       0.31927188        1 
H      -3.94193519      -0.66698614      -0.37139915        1 
C      -1.38938452       3.05462800       0.68464490        6 
C      -2.16348348      -2.60427669      -0.67714008        6 
H      -1.52001662      -2.98716936      -1.46845296        1 
H      -3.20513078      -2.68697419      -0.99596034        1 
H      -2.01241134      -3.25877870       0.18453871        1 
H      -0.85203576       3.60862993      -0.08865201        1 
H      -0.84340295       3.21687349       1.61447551        1 
H      -2.38846824       3.48376613       0.78344876        1 
