30
Lattice="0.0 0.0 0.0 0.0 0.0 0.0 0.0 0.0 0.0" Properties=species:S:1:pos:R:3:Z:I:1 pbc="F F F"
C       0.64670294       0.46673527      -0.14342914        6 
C      -0.72537504       0.46201340       0.13128552        6 
C       1.37287921      -0.84800618      -0.17403118        6 
C      -1.46954975      -0.83772343       0.27868273        6 
O       2.25968259      -0.93231245       0.83737854        8 
O       1.19931371      -1.72740225      -0.98261526        8 
O      -1.82542220      -1.33037425      -0.91708206        8 
O      -1.77377568      -1.33809386       1.33549625        8 
C      -2.52254491      -2.59111377      -0.90455331        6 
C       3.00795929      -2.16112604       0.91951622        6 
C       1.34218506       1.67280346      -0.31521276        6 
C       0.61116243       2.85745895      -0.22258517        6 
C      -0.75220643       2.85061435       0.06029213        6 
C      -1.44986678       1.65675266       0.24069922        6 
H      -1.88661578      -3.36618233      -0.47480138        1 
H       2.33188658      -3.00819641       1.04285950        1 
H      -1.28827258       3.79100299       0.13329605        1 
H      -3.44406484      -2.51333738      -0.32559324        1 
H      -2.73762679      -2.81037594      -1.94767697        1 
H       3.64753306      -2.05088203       1.79210255        1 
H       3.60565415      -2.30516306       0.01790454        1 
H       1.11976964       3.80400112      -0.37146489        1 
C      -2.93074735       1.64516179       0.53592194        6 
C       2.82345078       1.69446323      -0.60367832        6 
H       3.40002561       1.46642359       0.29661761        1 
H       3.13100904       2.67604259      -0.96824850        1 
H       3.09490649       0.95471755      -1.36183500        1 
H      -3.13428777       1.19928764       1.51327210        1 
H      -3.47843715       1.06002219      -0.20931932        1 
H      -3.33588270       2.65813540       0.53095636        1 
