30
Lattice="0.0 0.0 0.0 0.0 0.0 0.0 0.0 0.0 0.0" Properties=species:S:1:pos:R:3:Z:I:1 pbc="F F F"
C       0.70520849       0.48095464      -0.13798414        6 
C      -0.69368046       0.46294204      -0.12642772        6 
C       1.46749153      -0.79486494      -0.36428972        6 
C      -1.44607842      -0.81826639      -0.36402520        6 
O       2.06312084      -1.20822941       0.77636030        8 
O       1.54158838      -1.39043082      -1.40816871        8 
O      -1.97643860      -1.28467786       0.78894566        8 
O      -1.57629287      -1.36694093      -1.42739428        8 
C      -2.75864084      -2.49073689       0.67900687        6 
C       2.82744857      -2.42651943       0.67901957        6 
C       1.41077866       1.67900820       0.04896021        6 
C       0.67048132       2.84704682       0.22867755        6 
C      -0.72130647       2.82792038       0.24336697        6 
C      -1.43110112       1.63983866       0.07493835        6 
H      -3.61615005      -2.33046901       0.02320289        1 
H       2.18709997      -3.25316919       0.36778564        1 
H      -1.26765539       3.75463046       0.38363576        1 
H      -2.15109728      -3.30455013       0.28084383        1 
H      -3.08659574      -2.71497940       1.69154316        1 
H       3.22111409      -2.60056270       1.67782826        1 
H       3.63898905      -2.31183949      -0.04138876        1 
H       1.19246694       3.78918012       0.35682938        1 
C      -2.94181701       1.62412076       0.09532797        6 
C       2.91995461       1.70499569       0.04156719        6 
H       3.32464425       1.22781196       0.93844615        1 
H       3.28925817       2.73078132       0.00332322        1 
H       3.32251141       1.16929079      -0.82298478        1 
H      -3.31760681       1.11756752       0.98886458        1 
H      -3.34715034       1.09673602      -0.77321274        1 
H      -3.33942815       2.63995472       0.08659752        1 
