30
Lattice="0.0 0.0 0.0 0.0 0.0 0.0 0.0 0.0 0.0" Properties=species:S:1:pos:R:3:Z:I:1 pbc="F F F"
C       0.99961799       0.29779138      -0.11681993        6 
C      -0.38076925       0.60633063      -0.06262933        6 
C       1.48014269      -1.11215133       0.07908916        6 
C      -1.44568773      -0.39306957      -0.43908786        6 
O       0.53162239      -2.03794859      -0.14908791        8 
O       2.57878954      -1.40883906       0.49379709        8 
O      -2.29861625      -0.62403641       0.58156393        8 
O      -1.53921210      -0.91518265      -1.51960533        8 
C      -3.37676879      -1.53632445       0.30253356        6 
C       0.88712230      -3.40403125       0.11622188        6 
C       1.95600766       1.33621930      -0.09930341        6 
C       1.49258495       2.65079130      -0.00814529        6 
C       0.14157620       2.94313913       0.09905206        6 
C      -0.82162540       1.93422930       0.05657455        6 
H      -4.01612589      -1.14304339      -0.48995933        1 
H       1.73808143      -3.70383732      -0.49672457        1 
H      -0.17909326       3.97611869       0.18496905        1 
H      -2.98326857      -2.50645317      -0.00420443        1 
H      -3.93204120      -1.62334316       1.23389874        1 
H       0.00505160      -3.98402861      -0.14670986        1 
H       1.13810887      -3.53666551       1.16994793        1 
H       2.21433296       3.46024808      -0.00937459        1 
C      -2.29025573       2.29673504       0.08969054        6 
C       3.44710626       1.11126784      -0.18330685        6 
H       3.84990037       0.76120704       0.76920694        1 
H       3.94178441       2.04801638      -0.44905689        1 
H       3.70783163       0.35539088      -0.92435992        1 
H      -2.77144877       1.92782041       0.99814866        1 
H      -2.83126967       1.87005199      -0.76019209        1 
H      -2.41333014       3.37997775       0.05015111        1 
