30
Lattice="0.0 0.0 0.0 0.0 0.0 0.0 0.0 0.0 0.0" Properties=species:S:1:pos:R:3:Z:I:1 pbc="F F F"
C       0.72539812       0.47385944       0.12404179        6 
C      -0.66720732       0.44979942      -0.05720412        6 
C       1.46280211      -0.82166978       0.33366124        6 
C      -1.31966274      -0.89611300      -0.14329011        6 
O       2.19718935      -1.15140786      -0.73976235        8 
O       1.42725424      -1.46095804       1.35701027        8 
O      -2.49644968      -0.94777802       0.50879488        8 
O      -0.84385837      -1.84658209      -0.72089097        8 
C      -3.18444219      -2.21281087       0.46938005        6 
C       2.85981735      -2.42943351      -0.67580436        6 
C       1.43239552       1.67916595       0.18683855        6 
C       0.70343979       2.86083767       0.04551622        6 
C      -0.67170075       2.84240539      -0.15908686        6 
C      -1.39186963       1.64660448      -0.20875504        6 
H      -3.41909202      -2.48756585      -0.56022346        1 
H       3.55031022      -2.46405353       0.16823537        1 
H      -1.20330318       3.77957450      -0.28475284        1 
H      -2.56904420      -2.99285980       0.91903311        1 
H      -4.09541445      -2.06241459       1.04446605        1 
H       3.39579060      -2.52381508      -1.61739776        1 
H       2.11786960      -3.22260514      -0.57384896        1 
H       1.22365832       3.81176329       0.09146942        1 
C      -2.88414179       1.69039318      -0.44684408        6 
C       2.92615104       1.69966922       0.39894466        6 
H       3.21419241       1.09115803       1.26095429        1 
H       3.28037392       2.71705348       0.57155926        1 
H       3.44939427       1.29778083      -0.47303309        1 
H      -3.43616237       1.43523787       0.46025525        1 
H      -3.19601766       0.98249049      -1.21823972        1 
H      -3.18428378       2.69056854      -0.76462726        1 
