30
Lattice="0.0 0.0 0.0 0.0 0.0 0.0 0.0 0.0 0.0" Properties=species:S:1:pos:R:3:Z:I:1 pbc="F F F"
C       0.70697787       0.37709939      -0.04163979        6 
C      -0.71119312       0.37070713       0.11342065        6 
C       1.46487184      -0.84854997       0.40741616        6 
C      -1.39404833      -0.93781700      -0.20117314        6 
O       2.57790803      -1.07260290      -0.32273088        8 
O       1.09957246      -1.58320308       1.29002883        8 
O      -2.73489584      -0.90068266      -0.03105564        8 
O      -0.82895911      -1.94599101      -0.55107465        8 
C      -3.43422840      -2.12527432      -0.31307946        6 
C       3.30915564      -2.26604264       0.01337741        6 
C       1.40990198       1.58346703      -0.18467761        6 
C       0.67216465       2.77452775      -0.16837499        6 
C      -0.69289035       2.77472960       0.04220425        6 
C      -1.42558097       1.58497399       0.16207257        6 
H      -3.28765531      -2.41975827      -1.35343265        1 
H       3.66525235      -2.22199146       1.04409849        1 
H      -1.22300127       3.71977962       0.09034403        1 
H      -3.07913238      -2.92552385       0.33775466        1 
H      -4.48291290      -1.90837506      -0.11952370        1 
H       4.14591306      -2.29817147      -0.68102399        1 
H       2.67167745      -3.14311950      -0.10748454        1 
H       1.19445423       3.71828393      -0.28342247        1 
C      -2.92499150       1.72196393       0.31810561        6 
C       2.91419607       1.67685162      -0.30755264        6 
H       3.42020152       1.21040701       0.54078296        1 
H       3.21886532       2.72400809      -0.34854633        1 
H       3.27288876       1.17199559      -1.20525507        1 
H      -3.30267289       1.13719243       1.15628810        1 
H      -3.45630890       1.37565167      -0.57065844        1 
H      -3.17725121       2.77163408       0.48060688        1 
