30
Lattice="0.0 0.0 0.0 0.0 0.0 0.0 0.0 0.0 0.0" Properties=species:S:1:pos:R:3:Z:I:1 pbc="F F F"
C       0.07659659      -0.73068439       0.09020732        6 
C      -0.99357113       0.17717968      -0.00818465        6 
C       1.48367399      -0.25688673       0.33252833        6 
C      -0.74982105       1.64658972       0.10901115        6 
O       2.23846626      -0.39953522      -0.77125834        8 
O       1.90785837       0.11817408       1.39812740        8 
O       0.42465704       2.00663101      -0.45219378        8 
O      -1.49922940       2.43698821       0.63215751        8 
C       0.82155894       3.37597672      -0.26352774        6 
C       3.62265375      -0.02899489      -0.63888687        6 
C      -0.13865511      -2.11634351       0.03180458        6 
C      -1.44823475      -2.56321533      -0.14232526        6 
C      -2.50704489      -1.67145393      -0.25510784        6 
C      -2.31397127      -0.29142441      -0.18110311        6 
H       0.06252335       4.05182375      -0.65895232        1 
H       3.70899723       1.02571447      -0.37278703        1 
H      -3.51197612      -2.05373842      -0.39835065        1 
H       0.97167227       3.57867065       0.79801563        1 
H       1.75533905       3.48454356      -0.81075550        1 
H       4.06687581      -0.21589551      -1.61384593        1 
H       4.10835661      -0.63284151       0.12937759        1 
H      -1.64050169      -3.63001386      -0.19150074        1 
C      -3.51119133       0.62080927      -0.30446825        6 
C       0.99485277      -3.10705231       0.15399177        6 
H       1.66425948      -3.04787956      -0.70815375        1 
H       0.60813549      -4.12566946       0.21485356        1 
H       1.59458330      -2.92257693       1.04991798        1 
H      -3.34222320       1.42313377      -1.02551632        1 
H      -3.74091202       1.10141751       0.64831761        1 
H      -4.38301363       0.04797434      -0.62657601        1 
