30
Lattice="0.0 0.0 0.0 0.0 0.0 0.0 0.0 0.0 0.0" Properties=species:S:1:pos:R:3:Z:I:1 pbc="F F F"
C       0.74446311      -0.50128838       0.12513062        6 
C       0.21717041       0.78408022      -0.15918115        6 
C      -0.08447713      -1.73095405      -0.12040228        6 
C      -1.25364843       1.07217523      -0.03583977        6 
O      -1.37987036      -1.45979734      -0.38939323        8 
O       0.35773008      -2.85367404      -0.22255907        8 
O      -1.70628716       0.67194203       1.17236066        8 
O      -1.91029881       1.73904696      -0.79915216        8 
C      -3.10667958       0.87632301       1.41626487        6 
C      -2.19667252      -2.57212816      -0.79031910        6 
C       2.12803838      -0.66503688       0.34528422        6 
C       2.93919638       0.46945636       0.23976905        6 
C       2.42585246       1.70582107      -0.11676004        6 
C       1.05475304       1.89864158      -0.31121228        6 
H      -3.37131214       1.92976536       1.31392730        1 
H      -1.78820130      -3.04357856      -1.68526840        1 
H       3.09592687       2.55225450      -0.22133000        1 
H      -3.69970528       0.28805609       0.71266272        1 
H      -3.27655305       0.53457210       2.43493639        1 
H      -3.17710163      -2.14754791      -0.99547998        1 
H      -2.25664255      -3.31150556       0.00985486        1 
H       4.00410484       0.36582370       0.41698881        1 
C       0.53141286       3.27874780      -0.63368482        6 
C       2.78794982      -1.98220319       0.67742110        6 
H       2.24541186      -2.53095025       1.44797478        1 
H       3.80733503      -1.80224618       1.02593855        1 
H       2.82664709      -2.63855603      -0.19423933        1 
H      -0.17265714       3.63260563       0.12460538        1 
H      -0.00414836       3.28733044      -1.58383011        1 
H       1.35670938       3.99079100      -0.68708071        1 
