30
Lattice="0.0 0.0 0.0 0.0 0.0 0.0 0.0 0.0 0.0" Properties=species:S:1:pos:R:3:Z:I:1 pbc="F F F"
C       0.64972103       0.58855136      -0.09510030        6 
C      -0.73114690       0.48501680       0.08807872        6 
C       1.46996278      -0.66135433      -0.25810347        6 
C      -1.36805593      -0.86534001       0.26733044        6 
O       1.85224011      -1.15243710       0.93618552        8 
O       1.73122722      -1.18230603      -1.31387722        8 
O      -1.52198489      -1.49741940      -0.91000920        8 
O      -1.70158673      -1.33060129       1.32987412        8 
C      -2.10073504      -2.81653256      -0.85565677        6 
C       2.59239292      -2.38961823       0.90604210        6 
C       1.27189758       1.84001496      -0.20077216        6 
C       0.46302583       2.97285214      -0.11665267        6 
C      -0.91436596       2.86915098       0.06516481        6 
C      -1.53937278       1.62789010       0.17727335        6 
H      -1.48914897      -3.47452735      -0.23662069        1 
H       1.99530146      -3.17557400       0.44109650        1 
H      -1.51552213       3.77045676       0.12190704        1 
H      -3.11055436      -2.77179794      -0.44486515        1 
H      -2.11779407      -3.16506459      -1.88553066        1 
H       2.79618440      -2.62825073       1.94710915        1 
H       3.52119519      -2.26561583       0.34730225        1 
H       0.91789659       3.95429364      -0.19625178        1 
C      -3.02986923       1.50932006       0.38753547        6 
C       2.76278297       1.94134653      -0.40708387        6 
H       3.30710598       1.44978327       0.40526918        1 
H       3.08297399       2.98364532      -0.44328603        1 
H       3.06309519       1.45884151      -1.34152838        1 
H      -3.25498905       1.05314824       1.35539712        1 
H      -3.49155321       0.88273997      -0.38211208        1 
H      -3.50772450       2.48952267       0.35193098        1 
