30
Lattice="0.0 0.0 0.0 0.0 0.0 0.0 0.0 0.0 0.0" Properties=species:S:1:pos:R:3:Z:I:1 pbc="F F F"
C       0.28887838      -0.60721577      -0.06113511        6 
C      -0.97200615       0.03436528       0.14726979        6 
C       1.52178392       0.08125542       0.46241721        6 
C      -1.12568223       1.51394058      -0.10532650        6 
O       2.65302090      -0.29927008      -0.17199065        8 
O       1.51670689       0.91271239       1.33624528        8 
O       0.02239514       2.11151793      -0.47399414        8 
O      -2.18988674       2.08728232      -0.19533823        8 
C      -0.07831692       3.48934828      -0.86134953        6 
C       3.86655547       0.31046555       0.30032930        6 
C       0.34533215      -1.99024853      -0.32481453        6 
C      -0.85902146      -2.70773798      -0.32647859        6 
C      -2.06080554      -2.10601493      -0.01524132        6 
C      -2.15716817      -0.72530918       0.20264201        6 
H      -0.73182685       3.59724752      -1.72883867        1 
H       3.82416167       1.39241166       0.16633626        1 
H      -2.96248336      -2.70717114       0.03178360        1 
H      -0.47062625       4.09047884      -0.03989902        1 
H       0.93767234       3.79278026      -1.10477537        1 
H       4.66129102      -0.12094060      -0.30465173        1 
H       4.02215796       0.08812112       1.35716771        1 
H      -0.83388374      -3.77323988      -0.52801718        1 
C      -3.53657232      -0.16430900       0.45966444        6 
C       1.61613625      -2.78013467      -0.55601149        6 
H       2.18508013      -2.38863371      -1.39907586        1 
H       1.36596384      -3.82342920      -0.75688244        1 
H       2.27790693      -2.75283413       0.31230980        1 
H      -3.92850722       0.35019384      -0.42057046        1 
H      -3.54289220       0.56447046       1.26910350        1 
H      -4.21491583      -0.98207406       0.71458112        1 
