30
Lattice="0.0 0.0 0.0 0.0 0.0 0.0 0.0 0.0 0.0" Properties=species:S:1:pos:R:3:Z:I:1 pbc="F F F"
C       0.73545070       0.39105130      -0.10202044        6 
C      -0.67427358       0.41035216       0.03639431        6 
C       1.38604446      -0.95580367       0.05220744        6 
C      -1.50270581      -0.79115307      -0.35142705        6 
O       2.71498394      -0.88627772       0.28557103        8 
O       0.80700900      -2.01569840       0.00100865        8 
O      -2.31313365      -1.19223459       0.64874623        8 
O      -1.45586990      -1.31819466      -1.43220878        8 
C      -3.13247947      -2.34200838       0.36235925        6 
C       3.38112228      -2.14962720       0.46071165        6 
C       1.45728640       1.60379437      -0.12326394        6 
C       0.73389017       2.79284618       0.01853159        6 
C      -0.63873847       2.80018310       0.20842893        6 
C      -1.37603531       1.61428246       0.19552685        6 
H      -3.81118404      -2.13189252      -0.46627878        1 
H       2.97102730      -2.68121442       1.32063821        1 
H      -1.15780824       3.74517885       0.32963635        1 
H      -2.50391584      -3.19542138       0.10517365        1 
H      -3.69128625      -2.53422942       1.27571555        1 
H       4.42769436      -1.90190409       0.62481205        1 
H       3.26447579      -2.76874113      -0.42987805        1 
H       1.27019163       3.73499718      -0.01159153        1 
C      -2.88452798       1.66591590       0.29779916        6 
C       2.95312764       1.71915502      -0.31018285        6 
H       3.49272026       1.43038970       0.59384591        1 
H       3.20968061       2.75269703      -0.55041387        1 
H       3.31490809       1.07647326      -1.11290859        1 
H      -3.23930656       1.17715281       1.20725242        1 
H      -3.36081932       1.15873295      -0.54652366        1 
H      -3.22942470       2.70109841       0.30187415        1 
