30
Lattice="0.0 0.0 0.0 0.0 0.0 0.0 0.0 0.0 0.0" Properties=species:S:1:pos:R:3:Z:I:1 pbc="F F F"
C      -0.56858077      -0.62851407       0.14094030        6 
C      -0.36367979       0.74722698      -0.16805696        6 
C       0.50248459      -1.63946266      -0.17178007        6 
C       0.96627257       1.39278565       0.09144746        6 
O       1.64221491      -1.08574804      -0.63975814        8 
O       0.32643998      -2.83754712      -0.21219045        8 
O       1.56411102       0.82186242       1.16202557        8 
O       1.37143569       2.41786610      -0.40632080        8 
C       2.84303591       1.35868027       1.52621217        6 
C       2.63079139      -2.00216974      -1.13521514        6 
C      -1.87050893      -1.11699480       0.37137495        6 
C      -2.93703552      -0.22134847       0.22197982        6 
C      -2.74078499       1.08040155      -0.19781222        6 
C      -1.45535908       1.60668284      -0.38186925        6 
H       3.55564624       1.22717659       0.70904160        1 
H       2.96887868      -2.66935469      -0.34068740        1 
H      -3.59862979       1.72595029      -0.35225742        1 
H       2.76444616       2.42038454       1.76484811        1 
H       3.15670415       0.79094693       2.39967723        1 
H       3.44926625      -1.37731199      -1.48626272        1 
H       2.22409739      -2.59815053      -1.95376379        1 
H      -3.94553922      -0.57691809       0.40432241        1 
C      -1.32366038       3.06414827      -0.75483535        6 
C      -2.20624665      -2.54295369       0.74275217        6 
H      -2.13494722      -3.20539070      -0.12285008        1 
H      -3.22763971      -2.58466972       1.12856554        1 
H      -1.52855433      -2.94542654       1.49475737        1 
H      -0.74441971       3.19254800      -1.66936974        1 
H      -0.80827691       3.63777637       0.01923809        1 
H      -2.31499513       3.49792579      -0.90069974        1 
