30
Lattice="0.0 0.0 0.0 0.0 0.0 0.0 0.0 0.0 0.0" Properties=species:S:1:pos:R:3:Z:I:1 pbc="F F F"
C       0.70349411      -0.62841895       0.05366569        6 
C       0.38298413       0.73727273      -0.11623984        6 
C      -0.35386256      -1.68279258      -0.05478777        6 
C      -1.04208388       1.21631623      -0.12306584        6 
O      -1.47130067      -1.22291713      -0.66089987        8 
O      -0.22762124      -2.84482000       0.25841260        8 
O      -1.64644348       0.94880070       1.05509778        8 
O      -1.55742126       1.85066070      -1.00990080        8 
C      -3.03399366       1.31601542       1.14131414        6 
C      -2.54623325      -2.16189442      -0.82388312        6 
C       2.05220883      -1.03055674       0.17225468        6 
C       3.02954835      -0.03313286       0.11470866        6 
C       2.70519207       1.30365784      -0.06442698        6 
C       1.37784891       1.72117218      -0.18036594        6 
H      -3.16513950       2.38108392       0.94673161        1 
H      -2.21443352      -3.02594417      -1.40079170        1 
H       3.49671826       2.04432788      -0.10649049        1 
H      -3.61785285       0.74431469       0.41706223        1 
H      -3.33778612       1.06924066       2.15629986        1 
H      -3.32209302      -1.61886208      -1.35927932        1 
H      -2.90960351      -2.49815415       0.14904381        1 
H       4.07164061      -0.32013609       0.20241750        1 
C       1.05061130       3.18569175      -0.34960561        6 
C       2.49821485      -2.46426979       0.33411071        6 
H       2.10562012      -2.90678195       1.25086836        1 
H       3.58869767      -2.50945382       0.35911875        1 
H       2.14183227      -3.09509275      -0.48284532        1 
H       0.35739536       3.53500387       0.42108955        1 
H       0.57379166       3.37432916      -1.31342209        1 
H       1.95770754       3.78841410      -0.28382154        1 
