35
Lattice="0.0 0.0 0.0 0.0 0.0 0.0 0.0 0.0 0.0" Properties=species:S:1:pos:R:3:Z:I:1 pbc="F F F"
C      -0.45305872       0.77686212      -0.79146138        6 
C      -0.31646992      -0.78247393      -0.88848122        6 
C       0.76346297       1.67117940      -0.65839894        6 
C       1.03628268      -1.38131260      -0.52677397        6 
O       1.71204109       1.20654300       0.17027232        8 
O       0.84247301       2.74001289      -1.21942427        8 
O       1.27700712      -1.44033366       0.78969048        8 
O       1.78971261      -1.83052236      -1.36113838        8 
C       2.56227998      -1.95316608       1.17060175        6 
C       2.86885605       2.04543527       0.34582910        6 
C      -1.50569611       0.93860757       0.38709223        6 
C      -2.89567133       0.73728982      -0.25649228        6 
C      -2.82864391      -0.76613838      -0.62956344        6 
C      -1.49593939      -1.21553578       0.04793550        6 
O      -1.35836171      -0.27845107       1.12936086        8 
H      -0.91355976       1.13862113      -1.70962887        1 
H      -0.48707014      -1.10053813      -1.91650614        1 
H       3.35441481      -1.32513885       0.75893443        1 
H       2.57700810       3.01947461       0.74071933        1 
H      -3.66647678       0.92409411       0.49404512        1 
H      -3.07634795       1.39878202      -1.10565840        1 
H      -3.66810608      -1.32348010      -0.21117684        1 
H      -2.81725959      -0.94340258      -1.70699294        1 
H       2.57477430      -1.92252611       2.25795340        1 
H       2.69485757      -2.97489941       0.81102453        1 
H       3.38610169       2.18223009      -0.60469771        1 
H       3.50125089       1.51704029       1.05573374        1 
C      -1.50704545      -2.64650060       0.54123289        6 
H      -2.37560713      -2.80712150       1.18370026        1 
H      -1.57875131      -3.33227035      -0.30781220        1 
H      -0.60782486      -2.87978768       1.10851177        1 
C      -1.34616491       2.14428081       1.28305044        6 
H      -2.11615189       2.13644105       2.05762338        1 
H      -0.36879207       2.13885144       1.76966905        1 
H      -1.44218775       3.06486857       0.70300431        1 
