35
Lattice="0.0 0.0 0.0 0.0 0.0 0.0 0.0 0.0 0.0" Properties=species:S:1:pos:R:3:Z:I:1 pbc="F F F"
C       0.09148649       0.84679470       0.50246695        6 
C       0.40544646      -0.66714692       0.77466674        6 
C      -1.34249033       1.21076146       0.16347549        6 
C      -0.44185283      -1.71239041       0.04952991        6 
O      -2.11577057       0.97616366       1.25351118        8 
O      -1.76590014       1.70975265      -0.84687641        8 
O      -1.56678398      -1.20885639      -0.48263065        8 
O      -0.12916834      -2.87197991      -0.07026245        8 
C      -2.38635995      -2.11051703      -1.24841114        6 
C      -3.52337618       1.20525792       1.08408528        6 
C       1.25669618       1.26702428      -0.46934120        6 
C       2.42760334       1.65057990       0.46255109        6 
C       2.73063439       0.28458310       1.12576526        6 
C       1.89097466      -0.70493839       0.25328407        6 
O       1.72803895       0.00526879      -0.98839207        8 
H       0.24604999       1.36314245       1.45368484        1 
H       0.34388097      -0.90395816       1.83932244        1 
H      -2.78126339      -2.90074758      -0.60814850        1 
H      -3.91736638       0.56361372       0.29371262        1 
H       3.26990206       1.99257921      -0.14197701        1 
H       2.16844955       2.43992014       1.17168553        1 
H       3.78950538       0.03111085       1.06905717        1 
H       2.43839309       0.24098621       2.17805020        1 
H      -3.19006752      -1.49581501      -1.64738167        1 
H      -1.80540109      -2.55535190      -2.05678773        1 
H      -3.71847456       2.24800338       0.82887036        1 
H      -3.97767849       0.95391797       2.04023999        1 
C       2.57972717      -2.03434752       0.02720193        6 
H       3.60761474      -1.84517617      -0.29170993        1 
H       2.60132532      -2.61247114       0.95360266        1 
H       2.07744389      -2.63156264      -0.72876351        1 
C       0.98134922       2.22989176      -1.60145519        6 
H       1.91508624       2.42464266      -2.13526597        1 
H       0.24649589       1.82648798      -2.29478191        1 
H       0.59391989       3.17567741      -1.21708648        1 
