35
Lattice="0.0 0.0 0.0 0.0 0.0 0.0 0.0 0.0 0.0" Properties=species:S:1:pos:R:3:Z:I:1 pbc="F F F"
C       0.17816230       0.91203752       0.64615968        6 
C       0.37172838      -0.60868089       0.90852449        6 
C      -1.20380800       1.49695856       0.42316165        6 
C      -0.65893359      -1.57968546       0.35875168        6 
O      -2.19867846       0.60283577       0.55692536        8 
O      -1.39882426       2.68084665       0.27539286        8 
O      -0.96270569      -1.36196058      -0.93148555        8 
O      -1.08567531      -2.51548512       0.99505590        8 
C      -1.91988030      -2.25882284      -1.51444801        6 
C      -3.54109068       1.11504774       0.46572493        6 
C       1.30074752       1.22418774      -0.42931909        6 
C       2.60113708       1.43690586       0.37970135        6 
C       2.83241787       0.00938188       0.94739153        6 
C       1.75312514      -0.82214805       0.18754199        6 
O       1.55674244      -0.06373870      -1.01340714        8 
H       0.47131503       1.43321906       1.56257984        1 
H       0.43678420      -0.82810755       1.97316559        1 
H      -2.88068440      -2.17266952      -1.00300214        1 
H      -3.71861757       1.53674672      -0.52470129        1 
H       3.40498754       1.72609951      -0.30028760        1 
H       2.50720125       2.20962738       1.14507241        1 
H       3.82987398      -0.36296506       0.70848590        1 
H       2.70637234      -0.05276089       2.03065348        1 
H      -2.01058679      -1.94995682      -2.55366663        1 
H      -1.57279809      -3.29125616      -1.44945696        1 
H      -3.70798960       1.88499921       1.21991336        1 
H      -4.18761053       0.25791330       0.64010234        1 
C       2.13973664      -2.25119755      -0.12349168        6 
H       3.10141694      -2.27077819      -0.64039644        1 
H       2.22612494      -2.82994347       0.79933553        1 
H       1.39706549      -2.73108225      -0.76259891        1 
C       0.99467905       2.23736250      -1.50508544        6 
H       1.84718774       2.31293631      -2.18415785        1 
H       0.11765738       1.93644761      -2.08116523        1 
H       0.79390850       3.21618201      -1.06890539        1 
