35
Lattice="0.0 0.0 0.0 0.0 0.0 0.0 0.0 0.0 0.0" Properties=species:S:1:pos:R:3:Z:I:1 pbc="F F F"
C      -0.47952609       0.57399663      -0.91744536        6 
C       0.04261106      -0.86906047      -0.56041394        6 
C       0.45547370       1.68804555      -0.46666416        6 
C       1.47368936      -0.93022949      -0.06566135        6 
O       0.36611984       1.97100022       0.83557635        8 
O       1.20149074       2.25811409      -1.23175200        8 
O       2.24946044      -1.56827137      -0.97231068        8 
O       1.90229679      -0.49375468       0.97428695        8 
C       3.64988622      -1.65893635      -0.64930089        6 
C       1.32582650       2.90762674       1.35469261        6 
C      -1.88623644       0.53511131      -0.23814366        6 
C      -2.75208169      -0.50343698      -1.01611433        6 
C      -2.24354650      -1.84922233      -0.43730688        6 
C      -1.06721726      -1.36673557       0.44685612        6 
O      -1.60155619      -0.15174098       0.98990830        8 
H      -0.55514373       0.68696693      -1.99821050        1 
H       0.01111104      -1.48140773      -1.45961420        1 
H       3.79144590      -2.20039405       0.28723372        1 
H       1.26201663       3.86039737       0.82701926        1 
H      -3.80915843      -0.34522621      -0.79698282        1 
H      -2.62147075      -0.41827343      -2.09730149        1 
H      -2.99892556      -2.31829073       0.19621509        1 
H      -1.93977128      -2.57063809      -1.19868450        1 
H       4.10344031      -2.19780557      -1.47808280        1 
H       4.08093408      -0.66092055      -0.55795768        1 
H       2.33140723       2.49755780       1.25361642        1 
H       1.06933805       3.02757642       2.40468242        1 
C      -0.63420142      -2.30766542       1.54760035        6 
H      -1.49513338      -2.56754738       2.16727399        1 
H      -0.22725894      -3.22955179       1.12195777        1 
H       0.12614011      -1.84415084       2.17538076        1 
C      -2.57199305       1.86217399       0.00533065        6 
H      -3.54137910       1.69604127       0.48067149        1 
H      -1.97392783       2.50469977       0.64936644        1 
H      -2.74194014       2.37331175      -0.94666618        1 
