35
Lattice="0.0 0.0 0.0 0.0 0.0 0.0 0.0 0.0 0.0" Properties=species:S:1:pos:R:3:Z:I:1 pbc="F F F"
C       0.06051692       0.69123884       0.66469037        6 
C       0.47268075      -0.80950397       0.62423828        6 
C      -1.13471145       1.04940069      -0.19824180        6 
C      -0.58146191      -1.85162208       0.29613507        6 
O      -1.98785172       1.84482771       0.49055419        8 
O      -1.30360942       0.74138527      -1.35033347        8 
O      -1.82911457      -1.39186116       0.51857940        8 
O      -0.34501999      -3.00484692       0.03049676        8 
C      -2.90310017      -2.32432555       0.29998206        6 
C      -3.15742476       2.27346389      -0.22852675        6 
C       1.35768348       1.34597274       0.07197358        6 
C       2.52229783       1.10384234       1.07827548        6 
C       2.92049116      -0.36341211       0.76332404        6 
C       1.80340274      -0.77281247      -0.22886956        6 
O       1.66202606       0.43781965      -0.99287501        8 
H      -0.13647261       1.03244324       1.67943402        1 
H       0.74553270      -1.10151164       1.64441887        1 
H      -2.79056544      -3.19658712       0.94544134        1 
H      -3.73546666       1.40980782      -0.56144803        1 
H       3.34170957       1.79503803       0.87507545        1 
H       2.20725978       1.25780655       2.11285743        1 
H       3.88499448      -0.40748914       0.25426272        1 
H       2.96676032      -1.00951822       1.64204950        1 
H      -3.81227248      -1.77937420       0.54431209        1 
H      -2.91629920      -2.64381048      -0.74282232        1 
H      -2.87794846       2.87113017      -1.09771940        1 
H      -3.73139921       2.86999274       0.47744549        1 
C       2.11885334      -1.93095343      -1.14544691        6 
H       3.05796705      -1.72614200      -1.66527090        1 
H       2.21385339      -2.85914976      -0.58163332        1 
H       1.33055374      -2.06618629      -1.88611523        1 
C       1.22674504       2.76408241      -0.43892477        6 
H       2.18183405       3.10004515      -0.84854019        1 
H       0.47563371       2.83095747      -1.22772033        1 
H       0.94416900       3.43593814       0.37586830        1 
