35
Lattice="0.0 0.0 0.0 0.0 0.0 0.0 0.0 0.0 0.0" Properties=species:S:1:pos:R:3:Z:I:1 pbc="F F F"
C      -0.23709150       0.78612993      -0.85550273        6 
C      -0.55060086      -0.75657314      -0.82121646        6 
C       1.24934627       1.06735119      -0.67103911        6 
C       0.60080495      -1.68937407      -0.50938909        6 
O       1.57933506       1.70020618       0.46164000        8 
O       2.05992579       0.73448045      -1.50502227        8 
O       1.28701142      -1.31996830       0.59017242        8 
O       0.85378639      -2.67996674      -1.15055215        8 
C       2.42670179      -2.13067417       0.92450580        6 
C       2.98698235       1.90945297       0.67513393        6 
C      -1.31248553       1.33550901       0.13927859        6 
C      -2.68879081       1.20793799      -0.58588779        6 
C      -2.98638522      -0.30620796      -0.45846580        6 
C      -1.70531269      -0.81177192       0.24819744        6 
O      -1.38637245       0.28371629       1.11914660        8 
H      -0.43799772       1.15309768      -1.86401564        1 
H      -0.91935430      -1.09389293      -1.78783939        1 
H       3.16587735      -2.08462445       0.12296079        1 
H       3.41234970       2.51249255      -0.12800751        1 
H      -3.43545079       1.80441453      -0.05998951        1 
H      -2.64798678       1.56098094      -1.61839808        1 
H      -3.84967672      -0.48837877       0.18459407        1 
H      -3.16505794      -0.80580913      -1.41245152        1 
H       2.82508739      -1.70473501       1.84289835        1 
H       2.12788871      -3.16802000       1.08079018        1 
H       3.50561022       0.95066820       0.71783696        1 
H       3.06031680       2.42857637       1.62815416        1 
C      -1.85544537      -2.10116984       1.02480264        6 
H      -2.68817162      -2.01566262       1.72600305        1 
H      -2.05707422      -2.93260832       0.34462068        1 
H      -0.95048113      -2.32504460       1.59162893        1 
C      -1.10378473       2.68368996       0.79709664        6 
H      -1.98682670       2.93801328       1.38763116        1 
H      -0.23053663       2.67955808       1.44282470        1 
H      -0.96871087       3.45670638       0.03499458        1 
