35
Lattice="0.0 0.0 0.0 0.0 0.0 0.0 0.0 0.0 0.0" Properties=species:S:1:pos:R:3:Z:I:1 pbc="F F F"
C      -0.36083330       0.78151378      -0.87615560        6 
C      -0.38563119      -0.78710617      -0.82418796        6 
C       0.90006827       1.55014767      -0.51233649        6 
C       0.89492870      -1.59994655      -0.74888964        6 
O       1.33130840       1.33764129       0.73590487        8 
O       1.39078589       2.37412673      -1.25280617        8 
O       1.69457885      -1.29771425       0.28352936        8 
O       1.13438882      -2.49559548      -1.52787386        8 
C       2.89067048      -2.08800105       0.41180018        6 
C       2.49699626       2.07373074       1.13811006        6 
C      -1.54311737       1.10657871       0.11324668        6 
C      -2.86736136       0.62874452      -0.55251509        6 
C      -2.82656755      -0.89971376      -0.29494019        6 
C      -1.42410652      -1.05737539       0.34091232        6 
O      -1.33635707       0.12863824       1.14246195        8 
H      -0.59570824       1.11856797      -1.88451051        1 
H      -0.82262251      -1.13737570      -1.75796210        1 
H       3.49811486      -2.01006937      -0.49078934        1 
H       2.31660678       3.14829759       1.07552333        1 
H      -3.71908064       1.09542405      -0.05466986        1 
H      -2.91524967       0.89375309      -1.61078890        1 
H      -3.58629732      -1.19905260       0.42991966        1 
H      -2.95512796      -1.50389293      -1.19490881        1 
H       3.41698504      -1.67337807       1.26871749        1 
H       2.63916034      -3.13579294       0.58442949        1 
H       3.34639053       1.81841810       0.50189573        1 
H       2.68469512       1.77400860       2.16671745        1 
C      -1.21264946      -2.29692436       1.17915721        6 
H      -1.99980105      -2.37341746       1.93220870        1 
H      -1.24636180      -3.19077503       0.55076885        1 
H      -0.24840575      -2.25951430       1.68713400        1 
C      -1.59739535       2.50793418       0.68187931        6 
H      -2.44412938       2.59360058       1.36634779        1 
H      -0.68837465       2.75226076       1.23107431        1 
H      -1.72918155       3.23614066      -0.12268134        1 
