35
Lattice="0.0 0.0 0.0 0.0 0.0 0.0 0.0 0.0 0.0" Properties=species:S:1:pos:R:3:Z:I:1 pbc="F F F"
C      -0.70015075       0.66228183      -0.82306986        6 
C       0.02855563      -0.71431323      -0.70678608        6 
C      -0.04800844       1.84097317      -0.10244800        6 
C       1.54224388      -0.63686849      -0.82743226        6 
O       1.15047236       1.54675596       0.43005504        8 
O      -0.59077904       2.90633268       0.06750782        8 
O       2.21923185      -1.30225723       0.12234484        8 
O       2.07773903      -0.07980238      -1.75621178        8 
C       3.65309974      -1.27786197       0.00218655        6 
C       1.78836865       2.59125737       1.18486174        6 
C      -2.03435183       0.28702884      -0.07035783        6 
C      -2.71325898      -0.90018528      -0.82731859        6 
C      -1.94877311      -2.12770685      -0.27143433        6 
C      -0.77462159      -1.43064598       0.45327701        6 
O      -1.47217237      -0.34391519       1.09679825        8 
H      -0.87320153       0.95939052      -1.85809011        1 
H      -0.20971378      -1.25426555      -1.62925623        1 
H       4.01720559      -0.25004703       0.03137265        1 
H       1.17996350       2.85674351       2.05041248        1 
H      -3.77676582      -0.94037902      -0.59034839        1 
H      -2.62316471      -0.79177608      -1.91110680        1 
H      -2.55064882      -2.67065829       0.46028586        1 
H      -1.62272416      -2.83166617      -1.04033290        1 
H       4.02387548      -1.84302304       0.85470724        1 
H       3.96679432      -1.74210338      -0.93391405        1 
H       1.93736802       3.47345372       0.56123161        1 
H       2.74381859       2.17752961       1.49986368        1 
C      -0.06122995      -2.26606811       1.49032148        6 
H      -0.80075423      -2.66301606       2.19046562        1 
H       0.46406189      -3.10042012       1.02238045        1 
H       0.66701021      -1.67453958       2.04259619        1 
C      -3.00571022       1.38037434       0.31732256        6 
H      -3.86177778       0.92724820       0.82341982        1 
H      -2.55287867       2.11817196       0.97453323        1 
H      -3.36293554       1.89894173      -0.57547464        1 
