35
Lattice="0.0 0.0 0.0 0.0 0.0 0.0 0.0 0.0 0.0" Properties=species:S:1:pos:R:3:Z:I:1 pbc="F F F"
C       0.28389382       0.93447428       0.54947233        6 
C       0.08070114      -0.59574913       0.73098700        6 
C      -0.95572687       1.74682677       0.22135798        6 
C      -0.98351106      -1.15470768      -0.20401056        6 
O      -1.96741729       1.36640528       1.03911682        8 
O      -1.02454523       2.69831264      -0.51305300        8 
O      -1.17027458      -2.47364703       0.01853605        8 
O      -1.65145914      -0.52355269      -0.98451715        8 
C      -2.17405876      -3.11515621      -0.79049116        6 
C      -3.23038795       2.01572791       0.81549191        6 
C       1.56883048       1.00988015      -0.35897028        6 
C       2.75595987       0.95863013       0.62896033        6 
C       2.57229391      -0.45908826       1.23070570        6 
C       1.50625756      -1.08757353       0.27710441        6 
O       1.64826307      -0.31687337      -0.92770455        8 
H       0.55117086       1.33497242       1.53363228        1 
H      -0.16332195      -0.88852980       1.75214582        1 
H      -1.89592563      -3.07387403      -1.84490079        1 
H      -3.59346845       1.78196656      -0.18678563        1 
H       3.69199933       1.03228785       0.07173762        1 
H       2.73237968       1.76030747       1.37057826        1 
H       3.49668742      -1.03740413       1.19629178        1 
H       2.23000081      -0.44699090       2.26833642        1 
H      -2.20970032      -4.14584417      -0.44437189        1 
H      -3.14098099      -2.62871531      -0.65572731        1 
H      -3.13588491       3.09686765       0.92592323        1 
H      -3.90340680       1.61068093       1.56857671        1 
C       1.72720149      -2.55884675      -0.00250321        6 
H       2.76690075      -2.71088327      -0.30137361        1 
H       1.53139992      -3.15234469       0.89352331        1 
H       1.08125484      -2.92285521      -0.79927754        1 
C       1.65108335       2.04820862      -1.45224066        6 
H       2.59735006       1.92493402      -1.98542879        1 
H       0.82597108       1.94326571      -2.15463774        1 
H       1.60622297       3.05471346      -1.03408488        1 
