35
Lattice="0.0 0.0 0.0 0.0 0.0 0.0 0.0 0.0 0.0" Properties=species:S:1:pos:R:3:Z:I:1 pbc="F F F"
C      -0.38417463       0.62012626       0.65832316        6 
C       0.80939808      -0.32891524       0.91973045        6 
C      -1.75108626      -0.03516530       0.67953917        6 
C       0.74515693      -1.71049529       0.28761796        6 
O      -2.70958102       0.79297307       0.21314654        8 
O      -1.99080305      -1.11953159       1.15005134        8 
O      -0.10008783      -1.78446307      -0.75235453        8 
O       1.49576400      -2.60640942       0.59868382        8 
C      -0.14645662      -3.04154210      -1.44624813        6 
C      -4.05964039       0.29577649       0.27690674        6 
C       0.14456142       1.53351396      -0.52514496        6 
C       0.90493312       2.68014451       0.17869758        6 
C       2.06610697       1.88951887       0.84192702        6 
C       1.93597007       0.48417836       0.17308279        6 
O       1.25137882       0.77938087      -1.05612987        8 
H      -0.46552017       1.27585712       1.53388617        1 
H       1.03022268      -0.46583369       1.97724366        1 
H      -0.49724298      -3.82970586      -0.77809147        1 
H      -4.34125048       0.08518997       1.30971046        1 
H       1.28302229       3.37929163      -0.56991763        1 
H       0.28488313       3.23406402       0.88697679        1 
H       3.03798136       2.32540788       0.60833551        1 
H       1.98227450       1.83042436       1.92967352        1 
H      -0.84816088      -2.89476894      -2.26457998        1 
H       0.84059753      -3.30418039      -1.82959022        1 
H      -4.15744393      -0.61596759      -0.31409420        1 
H      -4.67968530       1.08848411      -0.13626081        1 
C       3.25268766      -0.20982662      -0.09235813        6 
H       3.91663905       0.46968344      -0.63154821        1 
H       3.72906523      -0.49180885       0.84951662        1 
H       3.12456785      -1.11476350      -0.68546112        1 
C      -0.79124758       1.92106956      -1.64462298        6 
H      -0.22985967       2.47642987      -2.39961895        1 
H      -1.22204955       1.03440883      -2.11218939        1 
H      -1.60548224       2.54360458      -1.27400498        1 
