35
Lattice="0.0 0.0 0.0 0.0 0.0 0.0 0.0 0.0 0.0" Properties=species:S:1:pos:R:3:Z:I:1 pbc="F F F"
C      -0.53666840       0.53356612       0.66678284        6 
C       0.84309396      -0.13622530       0.91724415        6 
C      -1.72587941      -0.38602324       0.46980658        6 
C       1.03524425      -1.57166764       0.45202233        6 
O      -2.86373127       0.34542099       0.41511407        8 
O      -1.72244095      -1.59047258       0.42861741        8 
O       0.73004832      -1.75800878      -0.83993005        8 
O       1.51767215      -2.42632036       1.15870265        8 
C       0.83052822      -3.10733691      -1.32215620        6 
C      -4.08701588      -0.39528827       0.24949059        6 
C      -0.19674885       1.59908583      -0.46331480        6 
C       0.38056518       2.82394298       0.28543064        6 
C       1.71703245       2.23914961       0.81975625        6 
C       1.76885193       0.84669449       0.11892608        6 
O       0.98911181       1.06335153      -1.06602239        8 
H      -0.81185692       1.09466060       1.56385419        1 
H       1.09314086      -0.14443194       1.97715068        1 
H       0.11721357      -3.74333323      -0.79519511        1 
H      -4.22076845      -1.10073072       1.07068936        1 
H       0.55977241       3.63024081      -0.42857661        1 
H      -0.28353833       3.19830701       1.06685728        1 
H       2.57136303       2.84530175       0.51467729        1 
H       1.74512442       2.14935778       1.90793421        1 
H       0.58589037      -3.05430817      -2.38091885        1 
H       1.83998662      -3.49537060      -1.17819985        1 
H      -4.07661362      -0.94168737      -0.69499066        1 
H      -4.87906097       0.35039389       0.25048477        1 
C       3.15556109       0.34793228      -0.22083974        6 
H       3.69397266       1.10788128      -0.79138913        1 
H       3.71614223       0.13644013       0.69314143        1 
H       3.11143488      -0.56321221      -0.81880394        1 
C      -1.23489201       1.88260937      -1.52368320        6 
H      -0.81209859       2.56334701      -2.26619113        1 
H      -1.53491618       0.96360284      -2.03144259        1 
H      -2.12270112       2.34041195      -1.08649751        1 
