35
Lattice="0.0 0.0 0.0 0.0 0.0 0.0 0.0 0.0 0.0" Properties=species:S:1:pos:R:3:Z:I:1 pbc="F F F"
C       0.38062978       0.84386661       0.64944836        6 
C       0.19335700      -0.72275985       0.59142108        6 
C      -0.68774833       1.59301589      -0.13764454        6 
C      -1.12748423      -1.16806217       0.00180297        6 
O      -1.88443989       1.42699999       0.47939604        8 
O      -0.55388549       2.25124199      -1.13433853        8 
O      -1.95581943      -1.60503279       0.97657771        8 
O      -1.41480680      -1.19655016      -1.17008128        8 
C      -3.26294765      -2.02377019       0.54877100        6 
C      -3.02741005       1.96781370      -0.20873445        6 
C       1.83448225       0.97849517       0.10555372        6 
C       2.78444963       0.33221836       1.16169631        6 
C       2.62153431      -1.18043162       0.86916246        6 
C       1.48863501      -1.16154524      -0.18642369        6 
O       1.82841031       0.00377564      -0.95299176        8 
H       0.29501068       1.18413896       1.68338518        1 
H       0.21782521      -1.11727147       1.60619247        1 
H      -3.18946389      -2.83635453      -0.17554744        1 
H      -3.13204192       1.49272004      -1.18558744        1 
H       3.80860584       0.66676643       0.99021002        1 
H       2.51320498       0.61021706       2.18300502        1 
H       3.52473853      -1.59617722       0.41831719        1 
H       2.37317491      -1.77772063       1.74861542        1 
H      -3.77099998      -2.35798252       1.45074898        1 
H      -3.79840195      -1.18757055       0.09596583        1 
H      -2.92388438       3.04580807      -0.33850326        1 
H      -3.88163150       1.73944881       0.42540559        1 
C       1.40001362      -2.38570302      -1.06991869        6 
H       2.37536128      -2.58069593      -1.52101301        1 
H       1.11522867      -3.26062972      -0.47786467        1 
H       0.66463696      -2.24316603      -1.86001028        1 
C       2.29621073       2.33263318      -0.39119544        6 
H       3.34190743       2.26700904      -0.70038917        1 
H       1.69187374       2.66992376      -1.22868219        1 
H       2.22372779       3.07122340       0.41300852        1 
