35
Lattice="0.0 0.0 0.0 0.0 0.0 0.0 0.0 0.0 0.0" Properties=species:S:1:pos:R:3:Z:I:1 pbc="F F F"
C      -0.26791670       0.90844368       0.53394790        6 
C       0.46640363      -0.47761694       0.70041993        6 
C      -1.67592943       0.84041959      -0.03556525        6 
C      -0.28857365      -1.66058147       0.09745106        6 
O      -2.56753354       0.75336483       0.97644597        8 
O      -1.99150069       0.94641828      -1.19385950        8 
O       0.51771976      -2.68178170      -0.23747871        8 
O      -1.49178108      -1.74430269       0.04563437        8 
C      -0.13491943      -3.87631021      -0.71169736        6 
C      -3.93411013       0.53767392       0.58656920        6 
C       0.78555927       1.74286106      -0.27442628        6 
C       1.83060161       2.22460988       0.76108315        6 
C       2.52616694       0.89431441       1.13558458        6 
C       1.88377684      -0.11001671       0.12467841        6 
O       1.52563800       0.73219275      -0.98313197        8 
H      -0.38994329       1.34517853       1.52536686        1 
H       0.54305511      -0.73377641       1.76124513        1 
H      -0.70968723      -3.66143737      -1.61321332        1 
H      -4.02030294      -0.41807326       0.06728285        1 
H       2.52550324       2.91179160       0.27471751        1 
H       1.37694012       2.74236215       1.60883743        1 
H       3.60401129       0.94577867       0.97622279        1 
H       2.36019625       0.59306423       2.17235149        1 
H       0.67017191      -4.57574871      -0.92583101        1 
H      -0.80117098      -4.27614172       0.05392661        1 
H      -4.28212120       1.34115914      -0.06423324        1 
H      -4.50253950       0.52222859       1.51430671        1 
C       2.84342250      -1.18990550      -0.33393714        6 
H       3.78736641      -0.71886531      -0.61770877        1 
H       3.03637986      -1.90337401       0.46957372        1 
H       2.45333029      -1.73446643      -1.18962176        1 
C       0.29127036       2.81485683      -1.22058979        6 
H       1.14894492       3.31719266      -1.67382060        1 
H      -0.33477469       2.39128936      -2.00241548        1 
H      -0.29453235       3.55941997      -0.67414972        1 
