35
Lattice="0.0 0.0 0.0 0.0 0.0 0.0 0.0 0.0 0.0" Properties=species:S:1:pos:R:3:Z:I:1 pbc="F F F"
C      -0.42139826       0.61708883      -0.90899093        6 
C      -0.19534665      -0.90239596      -0.66068420        6 
C       0.60114265       1.63678379      -0.43084004        6 
C       1.18590314      -1.52273328      -0.56195464        6 
O       0.95533618       1.49436069       0.85242898        8 
O       0.95306179       2.56958862      -1.11865761        8 
O       2.16866616      -0.69328699      -0.18231686        8 
O       1.38092531      -2.67972344      -0.86069097        8 
C       3.49352999      -1.25707187      -0.14190430        6 
C       1.88868206       2.45888645       1.36016906        6 
C      -1.76406624       0.79881240      -0.10126967        6 
C      -2.86578339      -0.08542521      -0.76669484        6 
C      -2.56721683      -1.48665829      -0.16588599        6 
C      -1.21076241      -1.21616947       0.52065984        6 
O      -1.45702591       0.07350627       1.09819817        8 
H      -0.56090902       0.82499677      -1.96883712        1 
H      -0.58528851      -1.41928337      -1.53906208        1 
H       3.78527681      -1.61287744      -1.13094866        1 
H       1.48735669       3.46997243       1.27264518        1 
H      -3.85698063       0.27387055      -0.48562820        1 
H      -2.80203155      -0.06216844      -1.85693943        1 
H      -3.30508503      -1.75543450       0.59302842        1 
H      -2.52427854      -2.28754316      -0.90624162        1 
H       4.14102321      -0.44509554       0.18124854        1 
H       3.53230665      -2.08700092       0.56473441        1 
H       2.83082164       2.40190168       0.81128719        1 
H       2.03778379       2.19426922       2.40472279        1 
C      -0.76176959      -2.19999163       1.57381348        6 
H      -1.53288224      -2.29551693       2.34128732        1 
H      -0.57978835      -3.18106915       1.13096932        1 
H       0.15938372      -1.85702699       2.05038889        1 
C      -2.18485591       2.21872444       0.20588075        6 
H      -3.10353577       2.21197550       0.79623278        1 
H      -1.41726009       2.74732469       0.77248526        1 
H      -2.36953188       2.76646246      -0.72145451        1 
