35
Lattice="0.0 0.0 0.0 0.0 0.0 0.0 0.0 0.0 0.0" Properties=species:S:1:pos:R:3:Z:I:1 pbc="F F F"
C      -0.34502429       0.48684537      -0.77096339        6 
C       0.28161300      -0.90747333      -0.47210386        6 
C       0.23551689       1.55996298       0.16399923        6 
C       1.76962001      -0.96445804      -0.17700823        6 
O      -0.58068893       2.61901268       0.31284022        8 
O       1.35815025       1.55302964       0.60777409        8 
O       2.43583178      -0.27397729      -1.13127763        8 
O       2.31759167      -1.68235891       0.62117117        8 
C       3.86298290      -0.21600799      -0.98276152        6 
C      -0.06842854       3.70535809       1.10743878        6 
C      -1.83990376       0.13367397      -0.42667662        6 
C      -2.29113355      -1.08410613      -1.30571109        6 
C      -1.75081977      -2.29544564      -0.50438696        6 
C      -0.79009287      -1.57759207       0.46670770        6 
O      -1.62349385      -0.46372634       0.86991596        8 
H      -0.18344768       0.81381972      -1.79976851        1 
H       0.25749052      -1.45320186      -1.42161576        1 
H       4.29280641      -1.21874973      -0.96784911        1 
H       0.82992015       4.12223072       0.64986740        1 
H      -3.37755698      -1.10576208      -1.39179246        1 
H      -1.88715112      -1.02259827      -2.31939274        1 
H      -2.54580796      -2.77971702       0.06646807        1 
H      -1.25568492      -3.05011762      -1.11953201        1 
H       4.22273060       0.34303787      -1.84417517        1 
H       4.11752105       0.30492031      -0.05813214        1 
H       0.16737575       3.35987558       2.11452797        1 
H      -0.86637245       4.44452726       1.13114706        1 
C      -0.34008054      -2.35576221       1.67936944        6 
H      -1.22260086      -2.70462248       2.22193642        1 
H       0.26214455      -3.21535269       1.38428184        1 
H       0.26577949      -1.73675495       2.34037634        1 
C      -2.90232484       1.21327490      -0.35565738        6 
H      -3.87132957       0.74318504      -0.17304227        1 
H      -2.70364138       1.92650802       0.43711119        1 
H      -2.95615385       1.75570420      -1.30338785        1 
