35
Lattice="0.0 0.0 0.0 0.0 0.0 0.0 0.0 0.0 0.0" Properties=species:S:1:pos:R:3:Z:I:1 pbc="F F F"
C      -0.77875002      -0.14024431       0.95183614        6 
C       0.61025282       0.44202599       0.57087054        6 
C      -1.24295280      -1.50253247       0.46448723        6 
C       1.82320253      -0.44954541       0.36640066        6 
O      -0.70713295      -1.88195604      -0.69458228        8 
O      -2.15363498      -2.09153774       1.00754416        8 
O       2.92656901       0.26689051       0.72674465        8 
O       1.90056276      -1.57038368      -0.06123728        8 
C       4.19126058      -0.38986669       0.53272842        6 
C      -1.19029085      -3.11281545      -1.25518989        6 
C      -1.68768813       0.93699270       0.22082013        6 
C      -1.39500166       2.33957112       0.84294182        6 
C      -0.10957542       2.77294032       0.08875154        6 
C       0.26431507       1.44865537      -0.60920351        6 
O      -1.02524933       1.00608409      -1.05231324        8 
H      -0.94041562      -0.12902299       2.02910187        1 
H       0.91524420       1.05954230       1.41649542        1 
H       4.34290488      -0.62577686      -0.52215820        1 
H      -2.24884458      -3.02798795      -1.50795675        1 
H      -2.22783362       3.01700994       0.64998606        1 
H      -1.26045679       2.28150490       1.92536683        1 
H      -0.32874148       3.52926650      -0.66819985        1 
H       0.67978764       3.15316597       0.73996382        1 
H       4.94190539       0.31767743       0.87854360        1 
H       4.23655376      -1.31225324       1.11376384        1 
H      -1.05353636      -3.93320451      -0.54949789        1 
H      -0.59313257      -3.27376206      -2.14970076        1 
C       1.23236434       1.51944055      -1.76537734        6 
H       0.84613839       2.19831023      -2.52890401        1 
H       2.20282191       1.89014202      -1.42847400        1 
H       1.36764653       0.53282657      -2.21351808        1 
C      -3.15630836       0.62052857       0.04569879        6 
H      -3.64435335       1.44780454      -0.47420527        1 
H      -3.30667498      -0.28996277      -0.53431294        1 
H      -3.63435165       0.48223241       1.01768034        1 
