35
Lattice="0.0 0.0 0.0 0.0 0.0 0.0 0.0 0.0 0.0" Properties=species:S:1:pos:R:3:Z:I:1 pbc="F F F"
C      -0.31267391       0.68255569       0.70507138        6 
C       0.81398725      -0.37139372       0.89241921        6 
C      -1.71021960       0.09026455       0.66137824        6 
C       0.55422724      -1.75882887       0.33179333        6 
O      -2.60674114       0.90593230       0.07640119        8 
O      -2.01597092      -0.94851328       1.19550033        8 
O      -0.18227424      -1.74295589      -0.79250361        8 
O       1.05622634      -2.75877275       0.78796951        8 
C      -0.47249071      -3.02236870      -1.37858844        6 
C      -3.97544683       0.45620217       0.09075535        6 
C       0.28383340       1.62083430      -0.42121852        6 
C       1.22581245       2.59938855       0.32534095        6 
C       2.34999903       1.63845120       0.79643983        6 
C       1.96637761       0.31155335       0.07549477        6 
O       1.24503606       0.77351120      -1.07716807        8 
H      -0.36593540       1.28005823       1.62292582        1 
H       1.09030706      -0.51481948       1.93540861        1 
H      -1.06116784      -3.62652814      -0.68619525        1 
H      -4.32537219       0.33068891       1.11634189        1 
H       1.61015056       3.33754874      -0.38148178        1 
H       0.72946532       3.13388563       1.13864747        1 
H       3.33277758       1.97636116       0.46345185        1 
H       2.39224138       1.51513247       1.88100217        1 
H      -1.04334855      -2.80586130      -2.27912364        1 
H       0.44942633      -3.55026139      -1.62686648        1 
H      -4.06923873      -0.49245100      -0.43942510        1 
H      -4.54005481       1.23589853      -0.41593072        1 
C       3.13384691      -0.56103985      -0.32787927        6 
H       3.84795099       0.02751223      -0.90794150        1 
H       3.63882711      -0.95361912       0.55778368        1 
H       2.80827257      -1.40732275      -0.93398669        1 
C      -0.62663658       2.25165210      -1.44921353        6 
H      -0.01654648       2.82348267      -2.15288040        1 
H      -1.18412985       1.49464083      -1.99980184        1 
H      -1.34128489       2.92358081      -0.97296780        1 
