35
Lattice="0.0 0.0 0.0 0.0 0.0 0.0 0.0 0.0 0.0" Properties=species:S:1:pos:R:3:Z:I:1 pbc="F F F"
C      -0.35036533       0.62497345      -0.86769062        6 
C      -0.21018765      -0.91103412      -0.61667891        6 
C       0.75687399       1.51367572      -0.32810668        6 
C       1.16374132      -1.46618846      -0.28169229        6 
O       1.03556622       1.27105206       0.96638065        8 
O       1.30393545       2.37143648      -0.97913168        8 
O       2.14348601      -0.68056131      -0.77313474        8 
O       1.37554083      -2.54469610       0.21557469        8 
C       3.49061925      -1.16163675      -0.62120687        6 
C       2.10039987       2.04835233       1.53625103        6 
C      -1.72007326       0.90147863      -0.15831085        6 
C      -2.83426362       0.19202152      -0.98091925        6 
C      -2.67741802      -1.28333499      -0.52739102        6 
C      -1.41210473      -1.20015387       0.36532343        6 
O      -1.61266710       0.07292244       1.00729467        8 
H      -0.40270849       0.85345892      -1.93099578        1 
H      -0.42208670      -1.42235022      -1.56239107        1 
H       3.61349312      -2.11841141      -1.13100323        1 
H       1.86375624       3.11289026       1.49871231        1 
H      -3.81157326       0.59321109      -0.70703599        1 
H      -2.70529963       0.33477102      -2.05594938        1 
H      -3.52541849      -1.60079013       0.08239908        1 
H      -2.57122546      -1.99085365      -1.35244542        1 
H       4.12013795      -0.39948642      -1.07474798        1 
H       3.73205380      -1.28489572       0.43566732        1 
H       3.03032258       1.87064768       0.99260257        1 
H       2.18649332       1.71089360       2.56676077        1 
C      -1.27776035      -2.28844621       1.40524132        6 
H      -2.19262213      -2.31865413       2.00212570        1 
H      -1.12759439      -3.26046374       0.93404431        1 
H      -0.43178025      -2.10192127       2.06585257        1 
C      -2.00933257       2.33894237       0.21413719        6 
H      -2.97572620       2.40432308       0.71835413        1 
H      -1.24518518       2.73416084       0.88518880        1 
H      -2.04050601       2.96318746      -0.68235511        1 
