35
Lattice="0.0 0.0 0.0 0.0 0.0 0.0 0.0 0.0 0.0" Properties=species:S:1:pos:R:3:Z:I:1 pbc="F F F"
C       0.39592681       0.84902334       0.65112592        6 
C       0.18127019      -0.71326955       0.60015388        6 
C      -0.67488068       1.61403263      -0.11592439        6 
C      -1.13673142      -1.13934969      -0.00852598        6 
O      -1.86154612       1.46386689       0.52510981        8 
O      -0.55120963       2.26817662      -1.11641528        8 
O      -1.95533106      -1.64679991       0.93995895        8 
O      -1.43149912      -1.09078571      -1.17798277        8 
C      -3.25608487      -2.06291987       0.48905444        6 
C      -3.01262906       2.00523633      -0.14899966        6 
C       1.84534305       0.96109424       0.08930702        6 
C       2.79854779       0.31568610       1.14252600        6 
C       2.60680906      -1.19843014       0.87614695        6 
C       1.47036573      -1.17669257      -0.17545299        6 
O       1.81907768      -0.02560130      -0.95755927        8 
H       0.33167620       1.19049594       1.68636472        1 
H       0.19310995      -1.10948574       1.61425052        1 
H      -3.16889350      -2.82821946      -0.28353913        1 
H      -3.13482033       1.52139099      -1.11952061        1 
H       3.82553089       0.63048791       0.95127783        1 
H       2.54633859       0.61464776       2.16284902        1 
H       3.50095677      -1.63867096       0.43038224        1 
H       2.35033102      -1.77595167       1.76631318        1 
H      -3.75565344      -2.46054634       1.36974732        1 
H      -3.80783313      -1.21082253       0.08840865        1 
H      -2.90566200       3.08147405      -0.28999302        1 
H      -3.85775806       1.78688775       0.50069380        1 
C       1.35878477      -2.40968851      -1.04393395        6 
H       2.32721012      -2.62330123      -1.50134013        1 
H       1.06706043      -3.27405968      -0.43982740        1 
H       0.61976848      -2.26505631      -1.83068347        1 
C       2.31596586       2.30430045      -0.42778845        6 
H       3.35792607       2.22493497      -0.74628512        1 
H       1.70636707       2.63802091      -1.26296323        1 
H       2.25853056       3.05317041       0.36809279        1 
