35
Lattice="0.0 0.0 0.0 0.0 0.0 0.0 0.0 0.0 0.0" Properties=species:S:1:pos:R:3:Z:I:1 pbc="F F F"
C       0.47750967       0.80643614       0.63376578        6 
C       0.06730916      -0.69858512       0.65093780        6 
C      -0.57980701       1.83652464       0.27559907        6 
C      -1.14340376      -1.03739279      -0.19843008        6 
O      -1.82119927       1.37844534       0.53973056        8 
O      -0.35711990       2.97550373      -0.05255702        8 
O      -2.02357431      -1.78077459       0.51351794        8 
O      -1.29844257      -0.76651557      -1.36216308        8 
C      -3.20497287      -2.19431041      -0.19446606        6 
C      -2.90773508       2.28754448       0.28828373        6 
C       1.82246662       0.77668886      -0.19477295        6 
C       2.91984159       0.33253061       0.80554433        6 
C       2.51839194      -1.14417337       1.06404532        6 
C       1.35943878      -1.34677612       0.04368232        6 
O       1.68057929      -0.41184206      -0.99282224        8 
H       0.72333725       1.09613764       1.66137121        1 
H      -0.12155210      -1.05302653       1.66273204        1 
H      -2.94328584      -2.83368382      -1.03928958        1 
H      -2.93425136       2.55781542      -0.76805424        1 
H       3.89474985       0.39525439       0.31881068        1 
H       2.94798018       0.94828293       1.70664488        1 
H       3.33748297      -1.82868158       0.83788462        1 
H       2.19848972      -1.33612717       2.09068187        1 
H      -3.80182195      -2.74394971       0.53037575        1 
H      -3.75150301      -1.32448239      -0.56262202        1 
H      -2.79968681       3.18975245       0.89193563        1 
H      -3.80812534       1.74431390       0.56686006        1 
C       1.22186771      -2.74951435      -0.50703460        6 
H       2.17667902      -3.07812236      -0.92326580        1 
H       0.93612104      -3.44253734       0.28889615        1 
H       0.47251762      -2.79084861      -1.29886279        1 
C       2.17331289       1.95300030      -1.07551127        6 
H       3.12340177       1.74842028      -1.57502964        1 
H       1.40651326       2.11804529      -1.83174217        1 
H       2.26634289       2.86587693      -0.48653227        1 
