35
Lattice="0.0 0.0 0.0 0.0 0.0 0.0 0.0 0.0 0.0" Properties=species:S:1:pos:R:3:Z:I:1 pbc="F F F"
C       0.29871109       0.84546897       0.62786478        6 
C       0.23338972      -0.73129043       0.55845734        6 
C      -0.73386440       1.54158752      -0.25964729        6 
C      -1.09159420      -1.32043100       0.11681065        6 
O      -1.98321285       1.25114635       0.17288259        8 
O      -0.52749631       2.28438100      -1.18359981        8 
O      -1.92422550      -1.40595535       1.17892368        8 
O      -1.36469212      -1.77229506      -0.96810416        8 
C      -3.23814780      -1.91773827       0.90631326        6 
C      -3.06477925       1.80203203      -0.60129240        6 
C       1.77372050       1.06457851       0.17976538        6 
C       2.69524984       0.38734644       1.24667432        6 
C       2.66629009      -1.09884572       0.81368845        6 
C       1.54214451      -1.07158126      -0.24866968        6 
O       1.84517577       0.15662002      -0.93556922        8 
H       0.11155810       1.18422358       1.64898265        1 
H       0.35065378      -1.09503233       1.58029637        1 
H      -3.18160047      -2.93390123       0.51283024        1 
H      -3.05314935       1.38657850      -1.61022318        1 
H       3.70062452       0.80666917       1.19579240        1 
H       2.32260040       0.54646267       2.26180840        1 
H       3.60292188      -1.38888084       0.33357919        1 
H       2.46649466      -1.79711435       1.62920074        1 
H      -3.75986622      -1.90373692       1.86076958        1 
H      -3.75047081      -1.28254053       0.18143463        1 
H      -2.98401649       2.88821050      -0.65584369        1 
H      -3.97252008       1.51082188      -0.07704886        1 
C       1.53208593      -2.23552392      -1.21369084        6 
H       2.52566126      -2.33993654      -1.65576247        1 
H       1.28806171      -3.16372856      -0.68993626        1 
H       0.79794553      -2.08806408      -2.00240470        1 
C       2.22251156       2.45870981      -0.20836076        6 
H       3.28243900       2.43255818      -0.47166815        1 
H       1.65048294       2.83980080      -1.04904125        1 
H       2.09935512       3.14037192       0.63889783        1 
