35
Lattice="0.0 0.0 0.0 0.0 0.0 0.0 0.0 0.0 0.0" Properties=species:S:1:pos:R:3:Z:I:1 pbc="F F F"
C      -0.67082844       0.14720032      -0.67965365        6 
C       0.70047321      -0.61429713      -0.57749134        6 
C      -0.64313451       1.59273953      -0.19632104        6 
C       1.82266247       0.15238210       0.10805534        6 
O      -1.88288380       2.08523379      -0.01634524        8 
O       0.34684275       2.27708360      -0.11040510        8 
O       2.66721350       0.65250285      -0.82068953        8 
O       2.00816572       0.24038289       1.29524937        8 
C       3.70879591       1.50569385      -0.31769591        6 
C      -1.96678456       3.47872377       0.34028934        6 
C      -1.64291140      -0.88399139       0.02355808        6 
C      -1.84539545      -2.04841859      -0.98776740        6 
C      -0.49009763      -2.79192834      -0.89528271        6 
C       0.27261208      -1.93253010       0.15010724        6 
O      -0.78728518      -1.48014075       1.00829319        8 
H      -0.95948766       0.24391720      -1.73053861        1 
H       1.06233037      -0.83726552      -1.58089583        1 
H       4.32948185       0.97297044       0.40422218        1 
H      -1.53531781       4.10003964      -0.44579231        1 
H      -2.66736864      -2.68334404      -0.65285876        1 
H      -2.08696028      -1.69127969      -1.99123167        1 
H      -0.61948056      -3.80596339      -0.51291275        1 
H       0.04224115      -2.85675884      -1.84603545        1 
H       4.29405779       1.79481407      -1.18821075        1 
H       3.26659910       2.38283558       0.15757499        1 
H      -1.43888531       3.66415800       1.27652388        1 
H      -3.02944446       3.68247595       0.45194751        1 
C       1.32608360      -2.68198525       0.93597848        6 
H       0.88189087      -3.57794516       1.37579534        1 
H       2.14006453      -2.99476930       0.27496010        1 
H       1.73576930      -2.06091227       1.72958268        1 
C      -2.92241955      -0.40998198       0.67991951        6 
H      -3.44082451      -1.27798291       1.09449400        1 
H      -2.72241530       0.29414441       1.48577640        1 
H      -3.57508879       0.07769146      -0.04560925        1 
