35
Lattice="0.0 0.0 0.0 0.0 0.0 0.0 0.0 0.0 0.0" Properties=species:S:1:pos:R:3:Z:I:1 pbc="F F F"
C       0.27571630       1.00500055       0.68773005        6 
C       0.35610389      -0.56507208       0.78207426        6 
C      -0.89257619       1.58969009      -0.11490370        6 
C      -0.96363618      -1.31497627       0.84794806        6 
O      -2.03290259       0.90541665       0.08858544        8 
O      -0.84845567       2.57133967      -0.81359305        8 
O      -1.28844928      -1.96793291      -0.28266668        8 
O      -1.66281933      -1.30390870       1.83171959        8 
C      -2.55919144      -2.64104112      -0.27582530        6 
C      -3.20355500       1.38832109      -0.59364357        6 
C       1.65945167       1.27755334       0.00715911        6 
C       2.78178507       0.72880539       0.94933926        6 
C       2.81046170      -0.77709843       0.59438517        6 
C       1.51587743      -0.89684977      -0.24155358        6 
O       1.60482639       0.29437008      -1.04784234        8 
H       0.20350177       1.44124250       1.68776369        1 
H       0.74782911      -0.76730175       1.78162432        1 
H      -3.36497670      -1.92311634      -0.11588470        1 
H      -3.06711819       1.32070108      -1.67401124        1 
H       3.73050354       1.21690072       0.72571742        1 
H       2.55481615       0.91967781       2.00098821        1 
H       3.66920456      -1.02003440      -0.03481406        1 
H       2.82200012      -1.43905118       1.46271431        1 
H      -2.64636422      -3.10564679      -1.25571114        1 
H      -2.59134395      -3.39512760       0.51198067        1 
H      -3.40543531       2.42455291      -0.32003973        1 
H      -4.01392091       0.74103192      -0.26553519        1 
C       1.42946903      -2.12128505      -1.12419291        6 
H       2.34840843      -2.20159806      -1.71006737        1 
H       1.32396866      -3.02551097      -0.52006841        1 
H       0.57920067      -2.06158012      -1.79960967        1 
C       1.97773436       2.65445310      -0.54058324        6 
H       3.00706010       2.65799888      -0.90739259        1 
H       1.30633155       2.93774936      -1.34468494        1 
H       1.89301824       3.40251131       0.25256236        1 
