35
Lattice="0.0 0.0 0.0 0.0 0.0 0.0 0.0 0.0 0.0" Properties=species:S:1:pos:R:3:Z:I:1 pbc="F F F"
C      -0.56659236       0.51121895       0.64849758        6 
C       0.83226853      -0.10866691       0.93528426        6 
C      -1.72224574      -0.42160399       0.35409143        6 
C       1.06482499      -1.55283915       0.51208315        6 
O      -2.88554387       0.22150827       0.62637850        8 
O      -1.68679786      -1.54999270      -0.06624400        8 
O       0.97107112      -1.74553122      -0.80845434        8 
O       1.39469759      -2.41373927       1.29622763        8 
C       1.08123700      -3.10492501      -1.25914701        6 
C      -4.09246119      -0.50945597       0.34137596        6 
C      -0.23829398       1.58122146      -0.48055030        6 
C       0.27723012       2.83045400       0.26931288        6 
C       1.61988998       2.29482791       0.83781576        6 
C       1.73750150       0.90067958       0.14562031        6 
O       0.97432137       1.08376765      -1.05711961        8 
H      -0.88727100       1.05978057       1.53491083        1 
H       1.05113022      -0.08856517       2.00194351        1 
H       0.26705367      -3.69868386      -0.84099259        1 
H      -4.11589986      -1.44275584       0.90536212        1 
H       0.44476482       3.63636767      -0.44815580        1 
H      -0.41596084       3.18847900       1.03296667        1 
H       2.46040250       2.92884052       0.55161935        1 
H       1.62358575       2.21060776       1.92670134        1 
H       0.99977824      -3.05602273      -2.34283317        1 
H       2.03875285      -3.53557836      -0.96207835        1 
H      -4.15985484      -0.73310878      -0.72479920        1 
H      -4.90628528       0.14456017       0.64679978        1 
C       3.15033502       0.45423451      -0.15883076        6 
H       3.67425130       1.23277770      -0.71759724        1 
H       3.69498492       0.26958043       0.77082075        1 
H       3.15323996      -0.45882204      -0.75412716        1 
C      -1.28430895       1.80835637      -1.54674886        6 
H      -0.90503044       2.51491444      -2.28833290        1 
H      -1.52853710       0.87351013      -2.05682883        1 
H      -2.19719720       2.21523915      -1.10794944        1 
