35
Lattice="0.0 0.0 0.0 0.0 0.0 0.0 0.0 0.0 0.0" Properties=species:S:1:pos:R:3:Z:I:1 pbc="F F F"
C      -0.03857482       0.73647198       0.73299219        6 
C       0.71153589      -0.62800406       0.84604449        6 
C      -1.54963975       0.60886480       0.83086846        6 
C       0.06028703      -1.82623313       0.16862239        6 
O      -2.23724984       1.26921431      -0.11404385        8 
O      -2.07796567       0.01386040       1.74065100        8 
O      -1.05533358      -1.51594930      -0.51464607        8 
O       0.55688725      -2.92728111       0.14863930        8 
C      -1.67608933      -2.58423956      -1.24999638        6 
C      -3.67091327       1.17671743      -0.02578877        6 
C       0.74975805       1.46566445      -0.42734605        6 
C       1.93816024       2.15259868       0.28585397        6 
C       2.72484444       0.91955283       0.79808178        6 
C       2.02011084      -0.25591036       0.05000917        6 
O       1.43291777       0.38583334      -1.09622193        8 
H       0.18033048       1.28170323       1.65704340        1 
H       0.92243166      -0.91111114       1.87710308        1 
H      -1.99488402      -3.37666698      -0.57137122        1 
H      -4.02598497       1.59863105       0.91546300        1 
H       2.51938850       2.71414412      -0.44834857        1 
H       1.62700157       2.83855863       1.07674265        1 
H       3.77922305       0.96650785       0.52317041        1 
H       2.67282035       0.79509652       1.88239553        1 
H      -2.53431336      -2.13358349      -1.74388492        1 
H      -0.98058792      -2.99226973      -1.98433617        1 
H      -3.98653289       0.13447913      -0.09192329        1 
H      -4.04958232       1.74829177      -0.87054210        1 
C       2.95798483      -1.36381001      -0.37446360        6 
H       3.80148478      -0.92693968      -0.91421162        1 
H       3.33799387      -1.89403189       0.50148598        1 
H       2.46585880      -2.09033140      -1.01755622        1 
C       0.02244590       2.31724930      -1.44207739        6 
H       0.75372360       2.73493547      -2.13869075        1 
H      -0.70446696       1.73050546      -2.00080303        1 
H      -0.50658322       3.13749158      -0.95363356        1 
