35
Lattice="0.0 0.0 0.0 0.0 0.0 0.0 0.0 0.0 0.0" Properties=species:S:1:pos:R:3:Z:I:1 pbc="F F F"
C      -0.06606919       0.87161996       0.61341330        6 
C       0.58041744      -0.53945479       0.81770464        6 
C      -1.36410137       0.95329673      -0.17585034        6 
C      -0.20123425      -1.82604611       0.64490320        6 
O      -2.37696353       1.30660819       0.66041532        8 
O      -1.52706899       0.74848255      -1.34843435        8 
O      -1.13224880      -1.79182399      -0.31487584        8 
O       0.03655850      -2.81145343       1.30749186        8 
C      -1.86493060      -3.00783467      -0.54931742        6 
C      -3.68143986       1.38801016       0.05965085        6 
C       1.09887983       1.59061223      -0.15811712        6 
C       2.31473053       1.71134327       0.81222790        6 
C       2.93769375       0.29253204       0.73236352        6 
C       1.87029155      -0.44675917      -0.10651129        6 
O       1.51322567       0.55611300      -1.06202080        8 
H      -0.24986348       1.33773410       1.58031160        1 
H       0.91451517      -0.60820219       1.85267185        1 
H      -2.41100705      -3.30288265       0.34803152        1 
H      -3.96462055       0.42294064      -0.36399453        1 
H       3.00710127       2.47493279       0.45480189        1 
H       2.00414576       1.99073184       1.82146068        1 
H       3.88061975       0.30593388       0.18206918        1 
H       3.11263524      -0.17260497       1.70395534        1 
H      -2.54982102      -2.77431426      -1.36124546        1 
H      -1.18588710      -3.81192596      -0.83662028        1 
H      -3.69545627       2.14138934      -0.72979736        1 
H      -4.35699895       1.66608143       0.86587478        1 
C       2.30881071      -1.71694394      -0.79739564        6 
H       3.18604064      -1.51550349      -1.41586537        1 
H       2.56234081      -2.48552090      -0.06439522        1 
H       1.51428319      -2.09886430      -1.44221935        1 
C       0.75037229       2.86110922      -0.90352325        6 
H       1.64027367       3.25457285      -1.39964096        1 
H      -0.01402605       2.67428178      -1.65655249        1 
H       0.38453875       3.62030724      -0.20574028        1 
