35
Lattice="0.0 0.0 0.0 0.0 0.0 0.0 0.0 0.0 0.0" Properties=species:S:1:pos:R:3:Z:I:1 pbc="F F F"
C      -0.76838311      -0.01377831      -0.71828852        6 
C       0.76547556      -0.15830897      -0.57131218        6 
C      -1.45705965       1.04140346       0.13338389        6 
C       1.60840209       1.06735730      -0.28013308        6 
O      -2.47597546       1.59455621      -0.57962808        8 
O      -1.20963240       1.34129073       1.26844440        8 
O       2.88494516       0.81127702      -0.67819605        8 
O       1.28176653       2.11047402       0.21960866        8 
C       3.84217342       1.85368350      -0.41927807        6 
C      -3.26477300       2.56995447       0.12406129        6 
C      -1.20143935      -1.42622412      -0.16341794        6 
C      -0.58621285      -2.53989099      -1.06723742        6 
C       0.86471494      -2.64270843      -0.51989725        6 
C       0.90451645      -1.40604832       0.40400563        6 
O      -0.39005129      -1.49257210       1.01741427        8 
H      -1.07021186       0.12475190      -1.75535777        1 
H       1.14377315      -0.48534589      -1.54167952        1 
H       3.91962019       2.04350928       0.65268996        1 
H      -2.63266361       3.38260590       0.48431086        1 
H      -1.13539251      -3.47365865      -0.93499046        1 
H      -0.63198273      -2.27789400      -2.12688794        1 
H       0.99585218      -3.54615395       0.07966451        1 
H       1.63322489      -2.62802930      -1.29544122        1 
H       4.78708496       1.48464990      -0.81226508        1 
H       3.54938490       2.77546049      -0.92417703        1 
H      -3.77278247       2.10982457       0.97407634        1 
H      -3.98970436       2.93595119      -0.60010654        1 
C       1.98505202      -1.35467855       1.45700258        6 
H       1.91929314      -2.24092253       2.09168375        1 
H       2.97256479      -1.32548311       0.99282398        1 
H       1.86230411      -0.46917062       2.08469830        1 
C      -2.66529930      -1.61002094       0.17127971        6 
H      -2.82629855      -2.60978577       0.58031665        1 
H      -2.99786790      -0.88181821       0.91278717        1 
H      -3.27686578      -1.49940025      -0.72765704        1 
