35
Lattice="0.0 0.0 0.0 0.0 0.0 0.0 0.0 0.0 0.0" Properties=species:S:1:pos:R:3:Z:I:1 pbc="F F F"
C      -0.80877120       0.11254418      -0.93332834        6 
C       0.58833316      -0.48942762      -0.62099845        6 
C      -1.13379933       1.52631035      -0.47109384        6 
C       1.75704131       0.44865837      -0.39355977        6 
O      -0.86846619       1.74586779       0.81997882        8 
O      -1.70554114       2.32108567      -1.18414857        8 
O       2.91001065      -0.22801515      -0.63364009        8 
O       1.74176319       1.60324934      -0.05237286        8 
C       4.12800820       0.50928476      -0.42355835        6 
C      -1.14229234       3.06827222       1.30780007        6 
C      -1.71004542      -0.92649460      -0.16632619        6 
C      -1.52516196      -2.32316349      -0.83857612        6 
C      -0.19757459      -2.81877547      -0.20254018        6 
C       0.26511780      -1.53905262       0.52820922        6 
O      -0.97901039      -1.06858617       1.06125610        8 
H      -1.01407279       0.10342906      -2.00277115        1 
H       0.89828052      -1.06608468      -1.49416552        1 
H       4.21104745       0.82062065       0.61912617        1 
H      -2.19407372       3.32271461       1.16628123        1 
H      -2.36285407      -2.97576646      -0.58802640        1 
H      -1.47953217      -2.24625751      -1.92703555        1 
H      -0.38110262      -3.60432850       0.53355081        1 
H       0.53028305      -3.18891452      -0.92735337        1 
H       4.93080307      -0.17729909      -0.68324797        1 
H       4.15426522       1.39199240      -1.06395036        1 
H      -0.51911605       3.79532873       0.78480893        1 
H      -0.89077347       3.04212590       2.36565282        1 
C       1.29029605      -1.70568326       1.62392852        6 
H       0.91494249      -2.40236235       2.37678991        1 
H       2.22372184      -2.09751190       1.21601587        1 
H       1.49548172      -0.74927109       2.11052337        1 
C      -3.14386659      -0.52179452       0.09255086        6 
H      -3.65589627      -1.30876331       0.65043639        1 
H      -3.19485056       0.39973572       0.67351343        1 
H      -3.66877209      -0.36528295      -0.85289338        1 
