35
Lattice="0.0 0.0 0.0 0.0 0.0 0.0 0.0 0.0 0.0" Properties=species:S:1:pos:R:3:Z:I:1 pbc="F F F"
C      -0.35474200       0.63979639      -0.87429351        6 
C      -0.23943698      -0.90798527      -0.65937181        6 
C       0.81432057       1.50007437      -0.41978145        6 
C       1.10129766      -1.54447126      -0.32810402        6 
O       1.00946446       1.46127288       0.91095108        8 
O       1.48649912       2.16203581      -1.17381492        8 
O       2.14219925      -0.72005399      -0.53036653        8 
O       1.23195635      -2.70716976      -0.02841092        8 
C       3.45568002      -1.27892260      -0.34943662        6 
C       2.13544412       2.20596540       1.40018644        6 
C      -1.69143173       0.93514168      -0.11577614        6 
C      -2.84728812       0.27495552      -0.92368810        6 
C      -2.72097873      -1.21340476      -0.50926935        6 
C      -1.43125837      -1.18575355       0.34870808        6 
O      -1.57266880       0.07467545       1.02654731        8 
H      -0.45362311       0.86481077      -1.93570219        1 
H      -0.48601700      -1.39758086      -1.60644569        1 
H       3.59551837      -2.14166011      -1.00201991        1 
H       2.04096657       3.26262720       1.14475649        1 
H      -3.80564167       0.69685512      -0.61614874        1 
H      -2.74152435       0.43940490      -1.99819967        1 
H      -3.56072947      -1.52125561       0.11675509        1 
H      -2.65790588      -1.90438996      -1.35228426        1 
H       4.14463402      -0.48000187      -0.61389033        1 
H       3.59698663      -1.58592487       0.68795636        1 
H       3.06032437       1.81721913       0.96973386        1 
H       2.12740168       2.06913856       2.47937790        1 
C      -1.30024528      -2.30274761       1.35834038        6 
H      -2.19755338      -2.31916614       1.98164913        1 
H      -1.19191404      -3.26675823       0.86093792        1 
H      -0.43195985      -2.15597493       2.00093314        1 
C      -1.94448250       2.36991669       0.29363407        6 
H      -2.89893172       2.44130954       0.81952173        1 
H      -1.15891782       2.73666901       0.95404457        1 
H      -1.98967987       3.01098732      -0.59095933        1 
