35
Lattice="0.0 0.0 0.0 0.0 0.0 0.0 0.0 0.0 0.0" Properties=species:S:1:pos:R:3:Z:I:1 pbc="F F F"
C      -0.29576176       0.90273141       0.52799587        6 
C       0.46778637      -0.46584012       0.70422401        6 
C      -1.71700548       0.80418935      -0.00335367        6 
C      -0.23450808      -1.65565114       0.05091144        6 
O      -2.56815139       0.62033983       1.03106303        8 
O      -2.07876382       0.96493161      -1.14140811        8 
O       0.60839625      -2.65296256      -0.26644366        8 
O      -1.43201749      -1.76763167      -0.05226859        8 
C       0.00320636      -3.85322308      -0.78677148        6 
C      -3.93628785       0.36374085       0.67234269        6 
C       0.73526602       1.75298075      -0.29562784        6 
C       1.75054638       2.29415308       0.73925910        6 
C       2.46307698       0.99113442       1.17379404        6 
C       1.88508312      -0.05445794       0.16406493        6 
O       1.52204255       0.75217057      -0.96867949        8 
H      -0.40982448       1.34509175       1.51849287        1 
H       0.52101757      -0.73657035       1.76266708        1 
H      -0.54281166      -3.63499564      -1.70513444        1 
H      -3.99617215      -0.56120183       0.09660076        1 
H       2.44185310       2.97532034       0.23907120        1 
H       1.27124622       2.83359012       1.55877708        1 
H       3.54516431       1.06630982       1.05963040        1 
H       2.26065680       0.71012835       2.20993524        1 
H       0.83247171      -4.52925741      -0.98312352        1 
H      -0.68098302      -4.28325167      -0.05403304        1 
H      -4.34268746       1.18799679       0.08433487        1 
H      -4.47115921       0.26445990       1.61467296        1 
C       2.89877903      -1.10362000      -0.24791906        6 
H       3.83473973      -0.60165509      -0.50354876        1 
H       3.08916418      -1.80095113       0.57055285        1 
H       2.55982199      -1.67115951      -1.11010900        1 
C       0.21902078       2.78090801      -1.27744110        6 
H       1.06716031       3.29563331      -1.73481111        1 
H      -0.38600231       2.31660209      -2.05228549        1 
H      -0.39643437       3.52224230      -0.76032299        1 
