35
Lattice="0.0 0.0 0.0 0.0 0.0 0.0 0.0 0.0 0.0" Properties=species:S:1:pos:R:3:Z:I:1 pbc="F F F"
C      -0.49570909       0.42195645      -0.70939856        6 
C       0.36308497      -0.88696581      -0.51564167        6 
C       0.11678711       1.67135826      -0.07463585        6 
C       1.76840419      -0.68067258       0.02901328        6 
O      -0.79716022       2.61183765       0.21865136        8 
O       1.30267677       1.86862293       0.03521694        8 
O       2.61541418      -0.45337596      -0.99972045        8 
O       2.12738030      -0.79670304       1.17335160        8 
C       3.95657144      -0.09103492      -0.63021952        6 
C      -0.28317837       3.86027430       0.72240627        6 
C      -1.88216132      -0.08336572      -0.16775721        6 
C      -2.38294097      -1.17242296      -1.17224904        6 
C      -1.58318576      -2.41959480      -0.72811681        6 
C      -0.61121146      -1.80364454       0.30741126        6 
O      -1.46822881      -0.85569343       0.97141367        8 
H      -0.56714804       0.67289123      -1.77163725        1 
H       0.51891146      -1.32927352      -1.50046206        1 
H       4.41660681      -0.87614697      -0.02840667        1 
H       0.38320296       4.32057263      -0.00821587        1 
H      -3.45774405      -1.32108223      -1.06130427        1 
H      -2.19596516      -0.88514199      -2.20944718        1 
H      -2.22673449      -3.14511581      -0.22658852        1 
H      -1.06457007      -2.92849118      -1.54324834        1 
H       4.49274157       0.03796234      -1.56813519        1 
H       3.93941211       0.84178588      -0.06461990        1 
H       0.25977566       3.69760385       1.65409702        1 
H      -1.15912856       4.48271365       0.89153685        1 
C      -0.02893531      -2.78993115       1.29450475        6 
H      -0.84213082      -3.35100258       1.76091706        1 
H       0.62540105      -3.49791321       0.77811362        1 
H       0.55211173      -2.28406582       2.06140696        1 
C      -2.96827139       0.89396696       0.23397803        6 
H      -3.86100688       0.32634468       0.50663060        1 
H      -2.66815506       1.50295562       1.08234232        1 
H      -3.21768950       1.55813510      -0.59630446        1 
