35
Lattice="0.0 0.0 0.0 0.0 0.0 0.0 0.0 0.0 0.0" Properties=species:S:1:pos:R:3:Z:I:1 pbc="F F F"
C      -0.25581711       0.90532376       0.48604156        6 
C       0.32632773      -0.50474685       0.78003225        6 
C      -1.74426112       1.02777964       0.22162350        6 
C      -0.26776146      -1.54255426      -0.18637644        6 
O      -2.42570475       0.28865058       1.12611795        8 
O      -2.27355543       1.83439522      -0.50217823        8 
O       0.52213999      -2.62061089      -0.34532591        8 
O      -1.38342718      -1.49928723      -0.64520245        8 
C      -0.00463345      -3.67576944      -1.17161746        6 
C      -3.85660919       0.30168591       1.00009593        6 
C       0.82513251       1.53836106      -0.46802478        6 
C       1.80646121       2.24411438       0.49024315        6 
C       2.31448024       1.02779271       1.30680452        6 
C       1.83303814      -0.18940735       0.44312204        6 
O       1.63139991       0.39988414      -0.86062717        8 
H      -0.19932375       1.45301372       1.43397269        1 
H       0.14476522      -0.84224133       1.80183643        1 
H      -0.21202724      -3.30374153      -2.17551615        1 
H      -4.14792957      -0.15526338       0.05262470        1 
H       2.61353834       2.69930664      -0.08742760        1 
H       1.33146434       3.01910356       1.09588662        1 
H       3.40116676       1.02191413       1.39148884        1 
H       1.91049013       0.98932021       2.32171823        1 
H       0.77333925      -4.43604543      -1.19662170        1 
H      -0.92217410      -4.07765786      -0.73939700        1 
H      -4.24169680       1.32120398       1.04791574        1 
H      -4.22780218      -0.28973745       1.83458927        1 
C       2.86920120      -1.29550023       0.38992060        6 
H       3.84971624      -0.85252313       0.20119169        1 
H       2.90871163      -1.82140719       1.34779191        1 
H       2.65451460      -2.01849290      -0.38937349        1 
C       0.38136087       2.30488132      -1.69003977        6 
H       1.26552190       2.62040044      -2.24992393        1 
H      -0.24628013       1.68724966      -2.33266813        1 
H      -0.19788158       3.18316528      -1.40541742        1 
