35
Lattice="0.0 0.0 0.0 0.0 0.0 0.0 0.0 0.0 0.0" Properties=species:S:1:pos:R:3:Z:I:1 pbc="F F F"
C      -0.77056349      -0.14397055      -0.75006156        6 
C       0.77936228      -0.33400478      -0.75833472        6 
C      -1.22562841       1.07577056       0.03682918        6 
C       1.52820523       0.99249272      -0.73434371        6 
O      -2.55219533       1.26946161      -0.12619595        8 
O      -0.52462120       1.82747633       0.66626103        8 
O       2.42364654       1.12568235       0.25150306        8 
O       1.34272605       1.82693859      -1.58932319        8 
C       3.07088108       2.40956604       0.33440563        6 
C      -3.11114319       2.41568089       0.54153911        6 
C      -1.19240613      -1.46395916      -0.00597052        6 
C      -0.76232439      -2.67219734      -0.89441303        6 
C       0.74510454      -2.80185036      -0.55774046        6 
C       0.98128607      -1.51280393       0.26807740        6 
O      -0.22602414      -1.47745957       1.05798031        8 
H      -1.19870194      -0.08085330      -1.74995330        1 
H       1.04073738      -0.71495354      -1.74984748        1 
H       2.32305985       3.18698308       0.49463725        1 
H      -2.64380700       3.33158140       0.17715499        1 
H      -1.31885515      -3.56658017      -0.61121101        1 
H      -0.95337294      -2.48422495      -1.95340377        1 
H       0.93496665      -3.67236411       0.07320939        1 
H       1.39070316      -2.86810975      -1.43567186        1 
H       3.74310137       2.33888434       1.18673935        1 
H       3.62679931       2.62047362      -0.58025707        1 
H      -2.96185743       2.33995196       1.61981669        1 
H      -4.17159962       2.40290357       0.29963387        1 
C       2.19148314      -1.54809005       1.17290380        6 
H       2.16045173      -2.46310564       1.76948537        1 
H       3.11192551      -1.54569063       0.58500636        1 
H       2.21061511      -0.68727410       1.83725349        1 
C      -2.59374379      -1.56977659       0.55659554        6 
H      -2.71824049      -2.54973558       1.02281056        1 
H      -2.78170509      -0.80473857       1.30921193        1 
H      -3.33759638      -1.45918052      -0.23506638        1 
