35
Lattice="0.0 0.0 0.0 0.0 0.0 0.0 0.0 0.0 0.0" Properties=species:S:1:pos:R:3:Z:I:1 pbc="F F F"
C      -0.80007619       0.38623134      -0.76570224        6 
C       0.32779026      -0.71699535      -0.77209271        6 
C      -0.31423868       1.82783988      -0.71936679        6 
C       1.67144993      -0.23340986      -0.21756693        6 
O      -0.19606893       2.31808480       0.52668858        8 
O      -0.03117384       2.44834475      -1.71451621        8 
O       2.38629277      -1.20736673       0.37147529        8 
O       2.11786378       0.87305195      -0.39662107        8 
C       3.70682854      -0.84129243       0.81675863        6 
C       0.43325482       3.60762402       0.63269972        6 
C      -1.81879520      -0.18221717       0.29276460        6 
C      -2.69844904      -1.18267201      -0.49232905        6 
C      -1.65725719      -2.26753384      -0.85150820        6 
C      -0.42271490      -1.84843847       0.01575541        6 
O      -1.01359549      -1.08032392       1.08098155        8 
H      -1.27869054       0.34413127      -1.74511210        1 
H       0.54891075      -1.02350694      -1.79825632        1 
H       3.64853562      -0.05371631       1.56907632        1 
H      -0.14018213       4.36161267       0.09162276        1 
H      -3.47141826      -1.57809003       0.17020306        1 
H      -3.18652123      -0.73041678      -1.35793768        1 
H      -1.99720711      -3.26475909      -0.57023345        1 
H      -1.41356766      -2.29298590      -1.91631537        1 
H       4.12702023      -1.74931228       1.24357536        1 
H       4.30932579      -0.49280397      -0.02299028        1 
H       1.44388486       3.55412713       0.22649410        1 
H       0.45494805       3.83250944       1.69710146        1 
C       0.32280885      -3.04330493       0.57678874        6 
H      -0.40367634      -3.73845281       1.00420953        1 
H       0.87038662      -3.56094946      -0.21475284        1 
H       1.02914435      -2.75512684       1.34924255        1 
C      -2.58007171       0.77742419       1.17868142        6 
H      -3.26960588       0.21299683       1.81101236        1 
H      -1.90518383       1.35336888       1.80666317        1 
H      -3.16450262       1.47322264       0.57008251        1 
