35
Lattice="0.0 0.0 0.0 0.0 0.0 0.0 0.0 0.0 0.0" Properties=species:S:1:pos:R:3:Z:I:1 pbc="F F F"
C      -0.25429864       0.68409324       0.68985282        6 
C       0.78193587      -0.45054386       0.90335099        6 
C      -1.69831247       0.22585720       0.77044243        6 
C       0.47607297      -1.78032060       0.22681737        6 
O      -2.54502696       1.00101789       0.06851124        8 
O      -2.06439527      -0.68218819       1.47690961        8 
O      -0.53810447      -1.71444433      -0.65325581        8 
O       1.17486363      -2.75859177       0.35230984        8 
C      -0.79651644      -2.90448589      -1.41642887        6 
C      -3.94195567       0.66631365       0.17612419        6 
C       0.38166605       1.51865534      -0.49459746        6 
C       1.33073587       2.52032789       0.20380011        6 
C       2.36067502       1.54761754       0.83723847        6 
C       2.00517236       0.19116842       0.14611833        6 
O       1.34489661       0.60845443      -1.06384901        8 
H      -0.20162257       1.32192944       1.58063991        1 
H       0.99745994      -0.65140784       1.95174625        1 
H      -1.06034925      -3.73076677      -0.75479088        1 
H      -4.27799921       0.75578304       1.21012124        1 
H       1.80077254       3.15465880      -0.55029692        1 
H       0.82337821       3.16208437       0.92775939        1 
H       3.38655660       1.83436900       0.60286834        1 
H       2.27883082       1.48026386       1.92483675        1 
H      -1.63082471      -2.65492717      -2.06852904        1 
H       0.08178729      -3.17630920      -2.00357118        1 
H      -4.11553141      -0.35333258      -0.17024545        1 
H      -4.45976313       1.38130891      -0.45961125        1 
C       3.20566376      -0.67483284      -0.16437949        6 
H       3.94736319      -0.07623935      -0.69821635        1 
H       3.65437773      -1.04644788       0.75972733        1 
H       2.94033119      -1.53458573      -0.77610392        1 
C      -0.49225021       2.08126977      -1.59080288        6 
H       0.14739236       2.56600756      -2.33263850        1 
H      -1.06376204       1.29232782      -2.07944282        1 
H      -1.19370199       2.81517792      -1.19341484        1 
