35
Lattice="0.0 0.0 0.0 0.0 0.0 0.0 0.0 0.0 0.0" Properties=species:S:1:pos:R:3:Z:I:1 pbc="F F F"
C      -0.48671414       0.73912116      -0.73378874        6 
C      -0.20850174      -0.78934034      -0.84257650        6 
C       0.61448753       1.78285771      -0.72956893        6 
C       1.09161170      -1.39315662      -0.33345503        6 
O       1.77041136       1.40673935      -0.16515158        8 
O       0.44939528       2.87600884      -1.22409806        8 
O       1.41188317      -1.03728056       0.91578649        8 
O       1.69714902      -2.23483745      -0.96048346        8 
C       2.59943346      -1.63247588       1.45860429        6 
C       2.82640514       2.38581543      -0.17184945        6 
C      -1.53016302       0.81758925       0.46255551        6 
C      -2.91124558       0.57052698      -0.18217985        6 
C      -2.74590251      -0.90090895      -0.65074946        6 
C      -1.40721346      -1.31749973       0.03660389        6 
O      -1.33281389      -0.42229643       1.15634583        8 
H      -1.03078955       1.01736860      -1.63685582        1 
H      -0.29292067      -1.12464542      -1.87528402        1 
H       3.46758004      -1.37739489       0.84792188        1 
H       2.51598306       3.28412799       0.36320125        1 
H      -3.68532071       0.65682246       0.58343218        1 
H      -3.14325905       1.26950759      -0.98772191        1 
H      -3.56254065      -1.53246680      -0.29799095        1 
H      -2.69296921      -1.00431010      -1.73679306        1 
H       2.69797621      -1.21696042       2.45908386        1 
H       2.50279224      -2.71888158       1.50143979        1 
H       3.09219839       2.65161881      -1.19596027        1 
H       3.66386837       1.90756236       0.33127159        1 
C      -1.34373189      -2.76264091       0.47843264        6 
H      -2.20822407      -2.99531156       1.10374787        1 
H      -1.35543334      -3.42194556      -0.39290876        1 
H      -0.43969481      -2.96647465       1.05353789        1 
C      -1.40432257       1.98985225       1.40475795        6 
H      -2.14757326       1.91060604       2.20134231        1 
H      -0.41159398       2.00846699       1.86014131        1 
H      -1.56120537       2.92924113       0.87035925        1 
