35
Lattice="0.0 0.0 0.0 0.0 0.0 0.0 0.0 0.0 0.0" Properties=species:S:1:pos:R:3:Z:I:1 pbc="F F F"
C      -0.41595662       0.57572145      -0.86289608        6 
C      -0.16444026      -0.95398019      -0.59576661        6 
C       0.65274943       1.58744484      -0.50506517        6 
C       1.18126205      -1.27996165       0.03511689        6 
O       1.30626995       1.29143535       0.62842134        8 
O       0.84031456       2.59997095      -1.13898413        8 
O       2.13800586      -1.20263753      -0.92495701        8 
O       1.42192958      -1.55746082       1.17985810        8 
C       3.49105250      -1.38894867      -0.47657459        6 
C       2.30257727       2.23103633       1.06610423        6 
C      -1.74566089       0.81429734      -0.03675616        6 
C      -2.90301854       0.22264134      -0.87579800        6 
C      -2.64497048      -1.29699922      -0.72292164        6 
C      -1.42616070      -1.32796794       0.24745308        6 
O      -1.62448872      -0.13493796       1.02917235        8 
H      -0.60785547       0.74737507      -1.92063925        1 
H      -0.17267782      -1.47916933      -1.55247366        1 
H       3.62441174      -2.38988051      -0.06296348        1 
H       1.84708737       3.20085601       1.27169470        1 
H      -3.85636225       0.50983005      -0.42827476        1 
H      -2.89462441       0.57331530      -1.90941752        1 
H      -3.49522636      -1.80213011      -0.26185405        1 
H      -2.43232304      -1.79975385      -1.66895082        1 
H       4.11202879      -1.25387405      -1.35950584        1 
H       3.74050103      -0.65075001       0.28751606        1 
H       3.07214286       2.35159627       0.30203358        1 
H       2.72002206       1.80143588       1.97382304        1 
C      -1.37120241      -2.55837152       1.12753987        6 
H      -2.33825090      -2.69693304       1.61633641        1 
H      -1.16715383      -3.44507312       0.51968896        1 
H      -0.59405473      -2.46898037       1.88233301        1 
C      -1.97558842       2.20707330       0.50445884        6 
H      -2.90721196       2.22781605       1.07373294        1 
H      -1.16307477       2.51073089       1.16687145        1 
H      -2.04709397       2.92967369      -0.31156881        1 
