35
Lattice="0.0 0.0 0.0 0.0 0.0 0.0 0.0 0.0 0.0" Properties=species:S:1:pos:R:3:Z:I:1 pbc="F F F"
C      -0.79748408       0.13468581      -0.94151157        6 
C       0.59031346      -0.46713237      -0.59993511        6 
C      -1.18377821       1.51865994      -0.44297018        6 
C       1.78892613       0.44667499      -0.42865457        6 
O      -0.73411510       1.79916413       0.78174342        8 
O      -1.96583603       2.22007220      -1.04745790        8 
O       2.91623453      -0.28679510      -0.63425744        8 
O       1.82181384       1.61755697      -0.15357670        8 
C       4.16167096       0.41370705      -0.46756707        6 
C      -1.11393716       3.07365045       1.32312236        6 
C      -1.70653317      -0.92330546      -0.19536971        6 
C      -1.46594184      -2.32513216      -0.84093305        6 
C      -0.16489031      -2.79265950      -0.13376883        6 
C       0.25672204      -1.48686599       0.57311867        6 
O      -1.01209115      -1.02701025       1.05754819        8 
H      -0.98650675       0.13670033      -2.01409760        1 
H       0.88272926      -1.07737966      -1.45683572        1 
H       4.25069603       0.80015452       0.54912965        1 
H      -2.20008773       3.15336227       1.39438407        1 
H      -2.30585774      -2.98777390      -0.62764639        1 
H      -1.36532347      -2.25817696      -1.92653691        1 
H      -0.37516876      -3.55529228       0.61926001        1 
H       0.59549618      -3.18001400      -0.81487654        1 
H       4.93728246      -0.32274954      -0.66655213        1 
H       4.23071607       1.24334674      -1.17279895        1 
H      -0.73290302       3.87942808       0.69391055        1 
H      -0.65923377       3.11356216       2.31024407        1 
C       1.25202797      -1.59894306       1.70219991        6 
H       0.86886624      -2.28084597       2.46464131        1 
H       2.20488894      -1.98256630       1.33349432        1 
H       1.42141078      -0.62351733       2.16394182        1 
C      -3.15835969      -0.55860756       0.01705608        6 
H      -3.66052769      -1.35966860       0.56378512        1 
H      -3.25925032       0.36446923       0.58884732        1 
H      -3.65901961      -0.42011466      -0.94378382        1 
