35
Lattice="0.0 0.0 0.0 0.0 0.0 0.0 0.0 0.0 0.0" Properties=species:S:1:pos:R:3:Z:I:1 pbc="F F F"
C      -0.63784984       0.72384597      -0.79675180        6 
C      -0.09360871      -0.74771313      -0.75880504        6 
C       0.21253288       1.82764143      -0.18220239        6 
C       1.42383505      -0.85701924      -0.81519736        6 
O       1.34425596       1.38667890       0.38745699        8 
O      -0.13881885       2.98280625      -0.14041235        8 
O       2.00435945      -1.39078823       0.26978401        8 
O       2.03860926      -0.54191312      -1.80768776        8 
C       3.43758056      -1.49387634       0.22416239        6 
C       2.16685642       2.37321560       1.03432386        6 
C      -1.95406962       0.53516091       0.04885024        6 
C      -2.88221268      -0.44450849      -0.73443170        6 
C      -2.28791696      -1.82550983      -0.36602220        6 
C      -0.98706701      -1.40776335       0.36167659        6 
O      -1.45214235      -0.27657539       1.12590022        8 
H      -0.86387667       1.04571950      -1.81391784        1 
H      -0.37412626      -1.19867712      -1.71342638        1 
H       3.88295148      -0.50723577       0.08729302        1 
H       1.60420364       2.88185072       1.81793735        1 
H      -3.91178446      -0.34257397      -0.38927319        1 
H      -2.87120530      -0.24094550      -1.80745542        1 
H      -2.93531529      -2.35943176       0.33242492        1 
H      -2.10298576      -2.47334378      -1.22540714        1 
H       3.72734555      -1.91907801       1.18278916        1 
H       3.75061504      -2.14261837      -0.59527190        1 
H       2.52150926       3.10619281       0.30818588        1 
H       3.00045455       1.81873389       1.45950421        1 
C      -0.41263747      -2.46222477       1.28109844        6 
H      -1.20478923      -2.83238085       1.93659239        1 
H      -0.02101906      -3.30170215       0.70205824        1 
H       0.39493820      -2.05998269       1.88723152        1 
C      -2.66773008       1.75711879       0.58456817        6 
H      -3.55722582       1.43397172       1.13017668        1 
H      -2.03645343       2.33818637       1.25417306        1 
H      -2.97495048       2.40826408      -0.23613445        1 
