35
Lattice="0.0 0.0 0.0 0.0 0.0 0.0 0.0 0.0 0.0" Properties=species:S:1:pos:R:3:Z:I:1 pbc="F F F"
C      -0.58715532       0.49034738       0.62316981        6 
C       0.80966667      -0.10884311       0.93989508        6 
C      -1.75368759      -0.44831661       0.38964018        6 
C       1.13833225      -1.52248955       0.48377153        6 
O      -2.90752821       0.22697741       0.63277716        8 
O      -1.73950022      -1.59948144       0.03727044        8 
O       0.86672176      -1.74873320      -0.80497550        8 
O       1.71954629      -2.31082782       1.19650605        8 
C       1.13536057      -3.07307122      -1.29041826        6 
C      -4.12593085      -0.50434811       0.40422569        6 
C      -0.26451850       1.53915167      -0.52548560        6 
C       0.20114367       2.81852528       0.20467802        6 
C       1.53169817       2.32348876       0.83522422        6 
C       1.71153450       0.92520801       0.16585388        6 
O       0.97772545       1.06588691      -1.06013905        8 
H      -0.90173584       1.06570717       1.49552550        1 
H       1.01475665      -0.09391818       2.00921296        1 
H       0.50856579      -3.79658695      -0.76669484        1 
H      -4.15721868      -1.39885977       1.02771833        1 
H       0.38140713       3.60503270      -0.53114882        1 
H      -0.52431760       3.18728962       0.93258312        1 
H       2.36839198       2.97482740       0.57809358        1 
H       1.49201384       2.24942854       1.92408714        1 
H       0.88342314      -3.04774186      -2.34827416        1 
H       2.18598772      -3.33218054      -1.14911197        1 
H      -4.20520253      -0.79600316      -0.64454110        1 
H      -4.92879066       0.17886334       0.67266566        1 
C       3.14251951       0.51294248      -0.09715006        6 
H       3.65979751       1.29972532      -0.65032753        1 
H       3.66736874       0.34535928       0.84638318        1 
H       3.18549403      -0.40501286      -0.68447086        1 
C      -1.29216828       1.70763153      -1.61905977        6 
H      -0.91733866       2.40349979      -2.37290622        1 
H      -1.50103791       0.75165732      -2.10502138        1 
H      -2.22386421       2.10149272      -1.20896938        1 
