35
Lattice="0.0 0.0 0.0 0.0 0.0 0.0 0.0 0.0 0.0" Properties=species:S:1:pos:R:3:Z:I:1 pbc="F F F"
C       0.49099210       0.84424677       0.65921090        6 
C       0.00454636      -0.64431293       0.65201627        6 
C      -0.43015085       1.81186338      -0.07411756        6 
C      -1.36690573      -0.93590460       0.08512512        6 
O      -1.39981462       2.22444024       0.77860175        8 
O      -0.35921257       2.16696797      -1.21969785        8 
O      -1.85151981      -2.07023536       0.64792633        8 
O      -1.96606474      -0.31560847      -0.75586673        8 
C      -3.11539154      -2.53448436       0.13937166        6 
C      -2.45765388       2.99957883       0.18542933        6 
C       1.90570639       0.69085591       0.01617739        6 
C       2.80099190      -0.08072835       1.03424615        6 
C       2.33453761      -1.54592466       0.83674780        6 
C       1.16700090      -1.35557795      -0.16023242        6 
O       1.65609918      -0.30330747      -0.99518941        8 
H       0.55886924       1.19793039       1.68869890        1 
H      -0.00694746      -1.03758267       1.66815478        1 
H      -3.03297822      -2.77620007      -0.92174374        1 
H      -2.94939784       2.41577743      -0.59412202        1 
H       3.85276439       0.04211705       0.77184109        1 
H       2.66839931       0.28223841       2.05575031        1 
H       3.11405906      -2.15052109       0.36850545        1 
H       2.02705161      -2.04449075       1.75771822        1 
H      -3.35096296      -3.42547146       0.71731637        1 
H      -3.88484764      -1.77323100       0.27458993        1 
H      -2.06457580       3.92219762      -0.24432712        1 
H      -3.14757707       3.21964622       0.99754236        1 
C       0.79286191      -2.56509931      -0.98681555        6 
H       1.67293115      -2.92590689      -1.52333107        1 
H       0.41906543      -3.36737027      -0.34708801        1 
H       0.02476413      -2.31415190      -1.72181413        1 
C       2.55531877       1.92317902      -0.57590565        6 
H       3.54569544       1.66537460      -0.95771976        1 
H       1.95301571       2.32910264      -1.38509685        1 
H       2.67573262       2.69012026       0.19524885        1 
