35
Lattice="0.0 0.0 0.0 0.0 0.0 0.0 0.0 0.0 0.0" Properties=species:S:1:pos:R:3:Z:I:1 pbc="F F F"
C       0.38242682       0.87047130       0.57119009        6 
C       0.01078410      -0.62147505       0.73124589        6 
C      -0.68319503       1.93326104       0.37864791        6 
C      -1.08016375      -1.12648436      -0.19679839        6 
O      -1.93406066       1.46461027       0.51782540        8 
O      -0.42590252       3.11341427       0.31013175        8 
O      -1.58884801      -2.28607077       0.29244163        8 
O      -1.47153226      -0.61133649      -1.21024684        8 
C      -2.60260929      -2.91614711      -0.50967953        6 
C      -2.99171078       2.43799952       0.45847057        6 
C       1.63953304       0.82778147      -0.39022711        6 
C       2.85256901       0.64035275       0.54759960        6 
C       2.53308344      -0.75698076       1.14823625        6 
C       1.37245111      -1.25274640       0.22773174        6 
O       1.56200360      -0.48836606      -0.97114201        8 
H       0.76655682       1.18311471       1.54874505        1 
H      -0.22810550      -0.90176362       1.75604132        1 
H      -2.21395407      -3.15637111      -1.50097843        1 
H      -2.99009259       2.93753071      -0.51111117        1 
H       3.76843605       0.61596751      -0.04629069        1 
H       2.94379758       1.43192081       1.29421043        1 
H       3.38555210      -1.43426990       1.08131430        1 
H       2.22752173      -0.71463898       2.19661050        1 
H      -2.87346092      -3.82436122       0.02459205        1 
H      -3.46852509      -2.26073182      -0.61658935        1 
H      -2.87391589       3.18168949       1.24817838        1 
H      -3.91100935       1.87247410       0.59349805        1 
C       1.39397292      -2.73496716      -0.07649734        6 
H       2.38624776      -3.01469974      -0.43694021        1 
H       1.16931532      -3.31465404       0.82156154        1 
H       0.66555366      -2.99664010      -0.84456888        1 
C       1.74190554       1.87408253      -1.47110921        6 
H       2.62615264       1.67926950      -2.08271856        1 
H       0.85960022       1.84334563      -2.11288759        1 
H       1.81559427       2.87118996      -1.03663470        1 
