35
Lattice="0.0 0.0 0.0 0.0 0.0 0.0 0.0 0.0 0.0" Properties=species:S:1:pos:R:3:Z:I:1 pbc="F F F"
C       0.18637865       0.92959658       0.60360340        6 
C       0.36011835      -0.59746637       0.87944028        6 
C      -1.21027722       1.40583671       0.24662910        6 
C      -0.70325731      -1.52053864       0.31632707        6 
O      -2.13552353       0.68473197       0.92027327        8 
O      -1.48907166       2.37621871      -0.41138934        8 
O      -1.08275331      -1.17664520      -0.92897302        8 
O      -1.11660909      -2.49748438       0.89407975        8 
C      -2.07924778      -2.00957162      -1.54379825        6 
C      -3.50945117       1.05924644       0.71980856        6 
C       1.38598154       1.23529632      -0.36856027        6 
C       2.64139191       1.35454332       0.53589655        6 
C       2.83349493      -0.11357700       0.99985729        6 
C       1.74079795      -0.85410942       0.17700874        6 
O       1.62091860      -0.03969650      -0.99664706        8 
H       0.36664242       1.46194216       1.54453239        1 
H       0.40811512      -0.82203079       1.94340019        1 
H      -2.99325006      -2.01357251      -0.94689247        1 
H      -3.77932255       0.95517180      -0.33260690        1 
H       3.48616506       1.69055496      -0.06819080        1 
H       2.50862708       2.06372036       1.35565059        1 
H       3.82174139      -0.49226118       0.73314836        1 
H       2.70218955      -0.25320888       2.07496050        1 
H      -2.26028373      -1.56957367      -2.52193325        1 
H      -1.71550307      -3.03330310      -1.64497212        1 
H      -3.67639197       2.09085823       1.03263744        1 
H      -4.08804861       0.37204633       1.33315240        1 
C       2.05943085      -2.28764052      -0.18651672        6 
H       3.03380366      -2.33690954      -0.67693550        1 
H       2.08490938      -2.91125765       0.71011580        1 
H       1.31203072      -2.69761967      -0.86797560        1 
C       1.23934981       2.31247850      -1.41844502        6 
H       2.16565034       2.37072092      -1.99538090        1 
H       0.41245443       2.09708053      -2.09311974        1 
H       1.04905625       3.28175183      -0.95507896        1 
