35
Lattice="0.0 0.0 0.0 0.0 0.0 0.0 0.0 0.0 0.0" Properties=species:S:1:pos:R:3:Z:I:1 pbc="F F F"
C       0.04915383       0.90550242       0.55946249        6 
C       0.44086312      -0.58437244       0.91073734        6 
C      -1.35860203       1.05028596       0.02155427        6 
C      -0.64374807      -1.55948802       0.47295906        6 
O      -2.16186620       1.60253038       0.95519997        8 
O      -1.74554122       0.72434876      -1.07473397        8 
O      -0.48930420      -2.02781099      -0.76879557        8 
O      -1.58314517      -1.83710161       1.18491177        8 
C      -1.58136644      -2.79878992      -1.30259776        6 
C      -3.55627873       1.69965659       0.60756364        6 
C       1.21246763       1.31152902      -0.41925722        6 
C       2.41896239       1.65816400       0.48719276        6 
C       2.80157489       0.25748028       1.02936771        6 
C       1.84196292      -0.67690676       0.22949196        6 
O       1.62877077       0.05924957      -0.98592191        8 
H       0.09641179       1.50884785       1.46428755        1 
H       0.50688141      -0.70135732       1.99227107        1 
H      -2.47231267      -2.17346774      -1.37030682        1 
H      -3.96818487       0.70380910       0.43786280        1 
H       3.21882007       2.07683537      -0.12636242        1 
H       2.17144562       2.38238614       1.26587660        1 
H       3.83860016       0.00720915       0.80049217        1 
H       2.66718808       0.15623658       2.10860197        1 
H      -1.25685294      -3.10609706      -2.29413444        1 
H      -1.78577192      -3.66653623      -0.67405293        1 
H      -3.68583845       2.30483240      -0.29084349        1 
H      -4.03536736       2.17098051       1.46266948        1 
C       2.40743746      -2.05556333      -0.03994696        6 
H       3.39756473      -1.96334764      -0.49184847        1 
H       2.51143289      -2.60514566       0.90020848        1 
H       1.76610334      -2.62297915      -0.71057094        1 
C       0.89293922       2.31696333      -1.50222636        6 
H       1.79029198       2.51967174      -2.09121219        1 
H       0.11361122       1.94037703      -2.16354082        1 
H       0.55509648       3.25782077      -1.05806097        1 
