35
Lattice="0.0 0.0 0.0 0.0 0.0 0.0 0.0 0.0 0.0" Properties=species:S:1:pos:R:3:Z:I:1 pbc="F F F"
C      -0.36366202       0.60927661      -0.85144995        6 
C      -0.24032729      -0.94367681      -0.60923108        6 
C       0.84907577       1.44503799      -0.48396134        6 
C       1.09620542      -1.45467960      -0.08443516        6 
O       1.09196964       1.43986980       0.84272672        8 
O       1.54730737       2.01486356      -1.28598227        8 
O       2.10883629      -0.85923274      -0.74784418        8 
O       1.26895641      -2.34360343       0.71040285        8 
C       3.44085310      -1.28203131      -0.40936146        6 
C       2.27348931       2.13841857       1.26921294        6 
C      -1.68018055       0.93729393      -0.06532329        6 
C      -2.85717550       0.40456383      -0.92289458        6 
C      -2.73742142      -1.12309234      -0.70283230        6 
C      -1.51882805      -1.22047981       0.26025844        6 
O      -1.63911630      -0.00246669       1.01916516        8 
H      -0.50348386       0.80426652      -1.91387546        1 
H      -0.33776916      -1.45326250      -1.57300327        1 
H       3.57833376      -2.33760753      -0.64855166        1 
H       2.20815356       3.19669038       1.01145750        1 
H      -3.79985365       0.79138361      -0.53127082        1 
H      -2.77981830       0.70825853      -1.96904564        1 
H      -3.62272256      -1.52250433      -0.20573507        1 
H      -2.58902673      -1.68949843      -1.62480716        1 
H       4.09951869      -0.66112481      -1.01241399        1 
H       3.63022209      -1.12893324       0.65432782        1 
H       3.15767972       1.70995461       0.79411135        1 
H       2.31416507       2.00733288       2.34827510        1 
C      -1.56019675      -2.42142754       1.18089759        6 
H      -2.53699089      -2.45305293       1.66962870        1 
H      -1.42507529      -3.34488074       0.61300170        1 
H      -0.78020250      -2.37659326       1.93638109        1 
C      -1.85003257       2.35439564       0.43786298        6 
H      -2.81281244       2.45337544       0.94379561        1 
H      -1.06018196       2.61868754       1.14011022        1 
H      -1.82846298       3.05685252      -0.40012821        1 
