35
Lattice="0.0 0.0 0.0 0.0 0.0 0.0 0.0 0.0 0.0" Properties=species:S:1:pos:R:3:Z:I:1 pbc="F F F"
C       0.36994798       0.76923092       0.66147293        6 
C      -0.01477308      -0.74698517       0.59232766        6 
C      -0.50384464       1.72604220      -0.13668346        6 
C      -1.37027790      -1.11751949       0.02998078        6 
O      -1.23583809       2.49043670       0.71840077        8 
O      -0.59076261       1.81351497      -1.33047480        8 
O      -1.94921990      -2.05327211       0.82951128        8 
O      -1.88216053      -0.72166640      -0.98428266        8 
C      -3.21642075      -2.56294537       0.37672516        6 
C      -2.16010614       3.40188945       0.09543083        6 
C       1.82874157       0.70856425       0.08388322        6 
C       2.71651143      -0.05913040       1.11017575        6 
C       2.34515015      -1.53669990       0.81701113        6 
C       1.20463109      -1.35703653      -0.21385193        6 
O       1.67748928      -0.24533329      -0.97800390        8 
H       0.36441219       1.10842511       1.69626275        1 
H      -0.00169204      -1.15140708       1.60338781        1 
H      -3.10567869      -3.05641312      -0.59041460        1 
H      -2.86562483       2.85516623      -0.53199939        1 
H       3.77123716       0.13687257       0.91091324        1 
H       2.51119131       0.24478052       2.13932063        1 
H       3.17517712      -2.06750194       0.34592138        1 
H       2.03705773      -2.10161217       1.69853112        1 
H      -3.53151056      -3.27528229       1.13625606        1 
H      -3.94255831      -1.75404615       0.28310051        1 
H      -1.62565561       4.12830254      -0.51889456        1 
H      -2.67537851       3.89890235       0.91478081        1 
C       0.90978837      -2.54211722      -1.10442328        6 
H       1.82127002      -2.85357120      -1.61882205        1 
H       0.54399689      -3.38351903      -0.50960171        1 
H       0.15921624      -2.28481624      -1.85351210        1 
C       2.42012664       2.00457227      -0.42551921        6 
H       3.43032164       1.82723643      -0.80079130        1 
H       1.81658103       2.41732875      -1.23285288        1 
H       2.48032626       2.73613159       0.38579729        1 
