35
Lattice="0.0 0.0 0.0 0.0 0.0 0.0 0.0 0.0 0.0" Properties=species:S:1:pos:R:3:Z:I:1 pbc="F F F"
C      -0.56677248       0.54468021       0.58669036        6 
C       0.76141241      -0.19078041       0.93786094        6 
C      -1.81196585      -0.25539323       0.25775486        6 
C       0.98177701      -1.62932523       0.49951583        6 
O      -2.88054076       0.35220944       0.84222391        8 
O      -1.92706500      -1.23292076      -0.43494217        8 
O       0.72530900      -1.84480702      -0.79143942        8 
O       1.47359916      -2.45761987       1.23549892        8 
C       0.92304397      -3.18371983      -1.27183247        6 
C      -4.16616416      -0.23084416       0.56435832        6 
C      -0.10370233       1.56710506      -0.53679059        6 
C       0.46109306       2.78694784       0.22671282        6 
C       1.71986595       2.15798948       0.88385170        6 
C       1.78098868       0.75680182       0.20023218        6 
O       1.10098108       0.97996925      -1.04271874        8 
H      -0.85179115       1.12795574       1.46130101        1 
H       0.93173713      -0.19115829       2.01343079        1 
H       0.25937005      -3.87366531      -0.74843247        1 
H      -4.19728854      -1.26790395       0.90181157        1 
H       0.73579876       3.56403283      -0.48991019        1 
H      -0.24664506       3.21280692       0.94050352        1 
H       2.62168472       2.72858951       0.65633258        1 
H       1.64342756       2.07689498       1.97030402        1 
H       0.67453556      -3.14728810      -2.32991755        1 
H       1.95838089      -3.49688145      -1.12645776        1 
H      -4.37863073      -0.19664721      -0.50560540        1 
H      -4.88334421       0.37318032       1.11606432        1 
C       3.17396063       0.21224386      -0.02465922        6 
H       3.78067437       0.95232550      -0.55083455        1 
H       3.64990875      -0.01356983       0.93251942        1 
H       3.15017763      -0.69960757      -0.62261722        1 
C      -1.07930938       1.84952539      -1.65476726        6 
H      -0.62198851       2.52032453      -2.38526881        1 
H      -1.36384685       0.92556475      -2.16177950        1 
H      -1.97978592       2.32857620      -1.26202137        1 
