35
Lattice="0.0 0.0 0.0 0.0 0.0 0.0 0.0 0.0 0.0" Properties=species:S:1:pos:R:3:Z:I:1 pbc="F F F"
C      -0.35714638       0.61696639      -0.87351367        6 
C      -0.11322778      -0.88392919      -0.56835694        6 
C       0.55815879       1.60733843      -0.17362854        6 
C       1.31237684      -1.34251783      -0.33430865        6 
O       1.09346758       1.11885550       0.95860031        8 
O       0.70642478       2.74907141      -0.54188515        8 
O       2.18816437      -0.54278291      -0.98294360        8 
O       1.63650110      -2.37925695       0.19044666        8 
C       3.56784969      -0.94626227      -0.93878763        6 
C       1.92024884       2.01815296       1.71517550        6 
C      -1.80768468       0.76156475      -0.27650253        6 
C      -2.76137757      -0.18918342      -1.06545932        6 
C      -2.49147406      -1.56030411      -0.38879856        6 
C      -1.25311923      -1.22122350       0.47205753        6 
O      -1.63638737       0.07632913       0.97431037        8 
H      -0.32595047       0.85243799      -1.93641206        1 
H      -0.34948239      -1.43463440      -1.48694809        1 
H       3.69439994      -1.92990709      -1.39385604        1 
H       1.34861588       2.89414417       2.02445056        1 
H      -3.79701089       0.12894376      -0.93803286        1 
H      -2.54509595      -0.18400441      -2.13648012        1 
H      -3.31757660      -1.84614898       0.26546342        1 
H      -2.31333335      -2.37546163      -1.09317386        1 
H       4.10839222      -0.18939368      -1.50276090        1 
H       3.91933433      -0.98150318       0.09360738        1 
H       2.77636066       2.33952366       1.11914413        1 
H       2.24777199       1.44880928       2.58211181        1 
C      -0.95017516      -2.15459052       1.61848227        6 
H      -1.83563651      -2.23764114       2.25377994        1 
H      -0.67815449      -3.14406421       1.25059332        1 
H      -0.12061410      -1.77811765       2.21711842        1 
C      -2.33973102       2.16118786      -0.06628742        6 
H      -3.33545361       2.10796185       0.37927294        1 
H      -1.69477515       2.74511078       0.59052003        1 
H      -2.40973824       2.68586026      -1.02197582        1 
