35
Lattice="0.0 0.0 0.0 0.0 0.0 0.0 0.0 0.0 0.0" Properties=species:S:1:pos:R:3:Z:I:1 pbc="F F F"
C       0.22594168       0.93707529       0.61130643        6 
C       0.35853725      -0.60476298       0.86939434        6 
C      -1.14702730       1.40234903       0.15346421        6 
C      -0.78469117      -1.47037010       0.37947819        6 
O      -2.09258918       0.84303716       0.94501888        8 
O      -1.40279270       2.21240601      -0.69966499        8 
O      -1.12035743      -1.19902774      -0.89701156        8 
O      -1.32095077      -2.32393022       1.04393038        8 
C      -2.20366840      -1.96504557      -1.44974896        6 
C      -3.45799876       1.18949739       0.65630976        6 
C       1.46624785       1.21912560      -0.30863170        6 
C       2.70881026       1.21612774       0.62501791        6 
C       2.84701659      -0.28854078       0.97033978        6 
C       1.70477823      -0.91241904       0.12472980        6 
O       1.63088331      -0.03150471      -1.00484411        8 
H       0.36049529       1.45731869       1.56510399        1 
H       0.44303460      -0.82522084       1.93182625        1 
H      -3.11007562      -1.82558914      -0.85790612        1 
H      -3.70464831       0.93628717      -0.37612870        1 
H       3.57594654       1.57233283       0.06632954        1 
H       2.58525606       1.85923757       1.49911132        1 
H       3.80972611      -0.68719000       0.64476202        1 
H       2.73798589      -0.50775123       2.03457056        1 
H      -2.34018419      -1.58448876      -2.45946267        1 
H      -1.95124098      -3.02649037      -1.46958302        1 
H      -3.62353352       2.25676123       0.81177513        1 
H      -4.05693601       0.60253431       1.34907419        1 
C       1.92512112      -2.34383275      -0.31277883        6 
H       2.88516376      -2.43003846      -0.82600004        1 
H       1.93210754      -3.00940127       0.55396978        1 
H       1.14073902      -2.67194788      -0.99675239        1 
C       1.42043949       2.36777503      -1.29227135        6 
H       2.38011137       2.42804668      -1.81104235        1 
H       0.62261299       2.23331852      -2.01823631        1 
H       1.24412943       3.31215253      -0.77231319        1 
