35
Lattice="0.0 0.0 0.0 0.0 0.0 0.0 0.0 0.0 0.0" Properties=species:S:1:pos:R:3:Z:I:1 pbc="F F F"
C      -0.51358858       0.52898443      -0.77173115        6 
C       0.14318924      -0.88973518      -0.59541964        6 
C       0.46206999       1.65907421      -0.46004026        6 
C       1.48456572      -0.86157115       0.11481766        6 
O      -0.04390339       2.66084256       0.26884310        8 
O       1.58791138       1.66694837      -0.90154576        8 
O       2.44945143      -1.37834575      -0.67214526        8 
O       1.67213013      -0.49411834       1.24877074        8 
C       3.78054436      -1.35685870      -0.12585818        6 
C       0.85621708       3.75093773       0.55390604        6 
C      -1.87259526       0.33885575      -0.00410044        6 
C      -2.76653078      -0.53914574      -0.93092949        6 
C      -2.12316230      -1.93846383      -0.76866421        6 
C      -0.96570590      -1.63962332       0.21924472        6 
O      -1.51600603      -0.59184724       1.03179186        8 
H      -0.72381899       0.68408902      -1.83445498        1 
H       0.30018128      -1.36411417      -1.56230680        1 
H       3.82637007      -1.93465984       0.79856450        1 
H       1.20212807       4.21121506      -0.37242529        1 
H      -3.79258183      -0.53040298      -0.55908650        1 
H      -2.78376885      -0.17915711      -1.96190735        1 
H      -2.81844323      -2.64507653      -0.31200043        1 
H      -1.76927333      -2.37381034      -1.70503230        1 
H       4.41434142      -1.80206495      -0.88964218        1 
H       4.08381477      -0.32813992       0.07364282        1 
H       1.71343510       3.38862795       1.12182645        1 
H       0.27391147       4.45638178       1.14226964        1 
C      -0.52412453      -2.81195953       1.06775029        6 
H      -1.38834312      -3.24462191       1.57660760        1 
H      -0.07429412      -3.58490756       0.43816467        1 
H       0.20142747      -2.50100712       1.81945420        1 
C      -2.59730812       1.52945901       0.58758929        6 
H      -3.54261103       1.18768285       1.01546416        1 
H      -2.00613472       2.00621379       1.36448255        1 
H      -2.81383323       2.27065885      -0.18536708        1 
