35
Lattice="0.0 0.0 0.0 0.0 0.0 0.0 0.0 0.0 0.0" Properties=species:S:1:pos:R:3:Z:I:1 pbc="F F F"
C      -0.75414894      -0.18337380      -0.58328968        6 
C       0.77522052      -0.01592149      -0.72781882        6 
C      -1.59359475       1.06017976      -0.37294023        6 
C       1.41588105       1.05254599       0.14416396        6 
O      -2.90592391       0.73436619      -0.50209249        8 
O      -1.21698924       2.18308671      -0.16329668        8 
O       2.49311658       1.57452014      -0.49812366        8 
O       1.07434800       1.39172664       1.24424461        8 
C       3.21961867       2.58042073       0.22896158        6 
C      -3.84282606       1.81202590      -0.32596600        6 
C      -0.88024255      -1.41693256       0.41103683        6 
C      -0.82456022      -2.66638424      -0.49538154        6 
C       0.62040703      -2.54690447      -1.05556719        6 
C       1.22643250      -1.41812183      -0.16402128        6 
O       0.41963210      -1.48144752       1.02040429        8 
H      -1.12212196      -0.53956921      -1.55003176        1 
H       1.08651116       0.13204568      -1.76069504        1 
H       3.65531054       2.15781976       1.13655378        1 
H      -3.66490137       2.59773734      -1.06173538        1 
H      -0.93416398      -3.56238041       0.11928610        1 
H      -1.59894779      -2.67839118      -1.26534647        1 
H       1.18391277      -3.47219794      -0.92409633        1 
H       0.65292996      -2.28968585      -2.11699642        1 
H       4.00175504       2.92049985      -0.44662464        1 
H       2.55810796       3.40404892       0.50094790        1 
H      -3.75530325       2.23369874       0.67663112        1 
H      -4.82569115       1.36819516      -0.47005289        1 
C       2.69241012      -1.58370315       0.16914945        6 
H       2.86328569      -2.57688924       0.59012930        1 
H       3.30087973      -1.47712639      -0.73217788        1 
H       3.02147946      -0.84320434       0.89995219        1 
C      -1.95272930      -1.37732423       1.47282190        6 
H      -1.85994110      -2.25881216       2.11110772        1 
H      -1.84254429      -0.48665864       2.09528654        1 
H      -2.94445151      -1.36833715       1.01924194        1 
