35
Lattice="0.0 0.0 0.0 0.0 0.0 0.0 0.0 0.0 0.0" Properties=species:S:1:pos:R:3:Z:I:1 pbc="F F F"
C      -0.37830067       0.59665020      -0.85704917        6 
C      -0.17298179      -0.93688639      -0.58694800        6 
C       0.67050693       1.56832893      -0.35324312        6 
C       1.21564201      -1.31132407      -0.09182451        6 
O       1.25123433       1.16842141       0.78871209        8 
O       0.89881496       2.63018576      -0.88378834        8 
O       2.11015826      -1.01415769      -1.06862042        8 
O       1.53050621      -1.81210864       0.95521201        8 
C       3.49240698      -1.24580112      -0.74810835        6 
C       2.22648790       2.05428697       1.36438499        6 
C      -1.75448885       0.83568925      -0.12507708        6 
C      -2.85125098       0.14656116      -0.98107229        6 
C      -2.63742128      -1.34571741      -0.62455266        6 
C      -1.40505149      -1.27726772       0.31992281        6 
O      -1.64063564      -0.03346646       1.00865023        8 
H      -0.47254749       0.80668506      -1.92094696        1 
H      -0.26819727      -1.46267514      -1.54064230        1 
H       3.66301058      -2.29867999      -0.51875088        1 
H       1.77038083       3.01372141       1.61232789        1 
H      -3.83764633       0.49639280      -0.67064244        1 
H      -2.73957583       0.36552917      -2.04489379        1 
H      -3.48952082      -1.74321410      -0.07049622        1 
H      -2.47013034      -1.98699998      -1.49251326        1 
H       4.04988467      -0.95039595      -1.63417840        1 
H       3.78723770      -0.64029183       0.11086886        1 
H       3.04898208       2.21919307       0.66619330        1 
H       2.57578194       1.54965297       2.26206919        1 
C      -1.30586476      -2.42373556       1.30272016        6 
H      -2.26445047      -2.54207326       1.81336912        1 
H      -1.07743764      -3.35516550       0.77760548        1 
H      -0.52124817      -2.24712063       2.03333460        1 
C      -2.06511041       2.25113019       0.30762855        6 
H      -3.03680841       2.27534646       0.80514514        1 
H      -1.31379078       2.62731558       1.00392757        1 
H      -2.09412301       2.91795613      -0.55681331        1 
