35
Lattice="0.0 0.0 0.0 0.0 0.0 0.0 0.0 0.0 0.0" Properties=species:S:1:pos:R:3:Z:I:1 pbc="F F F"
C       0.02284787       0.66027458       0.64258987        6 
C       0.46881742      -0.84099095       0.66269619        6 
C      -1.34151372       0.97769223       0.07415582        6 
C      -0.46554165      -1.78412424      -0.08513308        6 
O      -1.85259152       2.06553807       0.70136587        8 
O      -1.91193836       0.41313288      -0.82440998        8 
O      -1.45678614      -2.17615958       0.75325040        8 
O      -0.39029042      -2.13670074      -1.23102633        8 
C      -2.51398519      -2.94222437       0.14672652        6 
C      -3.11695154       2.53934962       0.20243072        6 
C       1.20376374       1.33241187      -0.17449659        6 
C       2.36882872       1.51123904       0.82746232        6 
C       2.79566246       0.03792849       1.05330495        6 
C       1.89428200      -0.72693577       0.03504421        6 
O       1.67651461       0.25907811      -0.99129029        8 
H       0.02281304       1.05902674       1.65628937        1 
H       0.51254654      -1.19357137       1.69378237        1 
H      -2.12417239      -3.87166898      -0.27129424        1 
H      -3.87757085       1.76229264       0.29113724        1 
H       3.16667795       2.08728549       0.35399757        1 
H       2.06809290       2.03321668       1.73762516        1 
H       3.84742050      -0.11576866       0.80789049        1 
H       2.63978704      -0.30592268       2.07836484        1 
H      -3.21947809      -3.15014194       0.94857151        1 
H      -2.98656113      -2.35875612      -0.64485507        1 
H      -3.02720774       2.83430631      -0.84439036        1 
H      -3.37038571       3.39675629       0.82198558        1 
C       2.52242207      -1.98131694      -0.53359875        6 
H       3.52170241      -1.75066897      -0.90965775        1 
H       2.61977217      -2.73981698       0.24919452        1 
H       1.91966385      -2.38542692      -1.34346464        1 
C       0.85467137       2.53728796      -1.01805485        6 
H       1.74233687       2.87797112      -1.55508443        1 
H       0.08510258       2.28883626      -1.75205491        1 
H       0.49270629       3.35393439      -0.38907091        1 
