35
Lattice="0.0 0.0 0.0 0.0 0.0 0.0 0.0 0.0 0.0" Properties=species:S:1:pos:R:3:Z:I:1 pbc="F F F"
C       0.27351643       0.72019267       0.57986396        6 
C       0.26111368      -0.85954394       0.60037077        6 
C      -1.02068453       1.37423425       0.14041063        6 
C      -0.80513389      -1.46896959      -0.30934848        6 
O      -1.87284905       1.43495740       1.18822510        8 
O      -1.26015418       1.87626942      -0.93020074        8 
O      -2.03698392      -1.22619847       0.19806595        8 
O      -0.63530937      -2.11327310      -1.31145297        8 
C      -3.14543937      -1.71248325      -0.58154203        6 
C      -3.17422186       1.97525536       0.90994343        6 
C       1.60422846       1.02039347      -0.20563556        6 
C       2.72028818       0.94688025       0.86353647        6 
C       2.67894001      -0.55674896       1.23033942        6 
C       1.72255345      -1.13982795       0.14011665        6 
O       1.84635697      -0.19465877      -0.93815826        8 
H       0.39514421       1.04919521       1.61312110        1 
H       0.05908901      -1.22144728       1.61015479        1 
H      -3.07023719      -2.79110869      -0.72466340        1 
H      -3.67923255       1.37468983       0.15121586        1 
H       3.67258503       1.21522849       0.40199335        1 
H       2.54921395       1.61582104       1.70970991        1 
H       3.66280061      -1.02083275       1.15230840        1 
H       2.30427159      -0.74362600       2.23989795        1 
H      -4.03440808      -1.46399890      -0.00555489        1 
H      -3.16569522      -1.21947782      -1.55473647        1 
H      -3.09734876       3.00520881       0.55844340        1 
H      -3.71539707       1.93034155       1.85259007        1 
C       2.08691295      -2.54228353      -0.30106418        6 
H       3.14548598      -2.57180227      -0.56955877        1 
H       1.92561638      -3.24616127       0.52139504        1 
H       1.49088063      -2.85633615      -1.15301278        1 
C       1.66108708       2.22029400      -1.12343675        6 
H       2.66541531       2.29983749      -1.54604067        1 
H       0.93554965       2.13663326      -1.92968659        1 
H       1.44751008       3.13700757      -0.56706607        1 
