35
Lattice="0.0 0.0 0.0 0.0 0.0 0.0 0.0 0.0 0.0" Properties=species:S:1:pos:R:3:Z:I:1 pbc="F F F"
C      -0.72944512       0.02849781      -0.70797994        6 
C       0.74576962      -0.49376922      -0.61624128        6 
C      -0.87159003       1.51188549      -0.39216496        6 
C       1.68414159       0.42338747       0.15121870        6 
O      -2.09362836       1.84754880       0.05148324        8 
O      -0.01307223       2.32679258      -0.63346496        8 
O       2.70753101       0.81525228      -0.63635422        8 
O       1.58884583       0.71577749       1.31703193        8 
C       3.62926147       1.74506281      -0.04061914        6 
C      -2.32480492       3.25260825       0.27353932        6 
C      -1.51079780      -1.08600354       0.09606580        6 
C      -1.62635866      -2.29857405      -0.87019063        6 
C      -0.16647179      -2.81815696      -0.90050613        6 
C       0.53324044      -1.86384753       0.10731274        6 
O      -0.52213325      -1.55235403       1.02759516        8 
H      -1.05051717      -0.01631797      -1.75397485        1 
H       1.17021193      -0.63635161      -1.60872324        1 
H       4.11976428       1.29915132       0.82637783        1 
H      -2.20351440       3.81004420      -0.65640536        1 
H      -2.29866493      -3.04207107      -0.43851502        1 
H      -2.01770471      -2.02263861      -1.85149705        1 
H      -0.10138060      -3.84631546      -0.53977911        1 
H       0.29324449      -2.78297469      -1.89047852        1 
H       4.35552510       1.97235226      -0.81799906        1 
H       3.09884984       2.64739381       0.26684246        1 
H      -1.62819306       3.63719996       1.01913643        1 
H      -3.34937432       3.32077185       0.63254272        1 
C       1.72769771      -2.45076600       0.82738371        6 
H       1.44911254      -3.39890066       1.29208197        1 
H       2.54014777      -2.63909568       0.11987478        1 
H       2.08389612      -1.77425727       1.60411346        1 
C      -2.78760656      -0.75096664       0.83578741        6 
H      -3.16067664      -1.65953930       1.31460675        1 
H      -2.61409674       0.00384053       1.60010044        1 
H      -3.55017205      -0.37626405       0.15088970        1 
