35
Lattice="0.0 0.0 0.0 0.0 0.0 0.0 0.0 0.0 0.0" Properties=species:S:1:pos:R:3:Z:I:1 pbc="F F F"
C      -0.85681412       0.16196472      -0.89131905        6 
C       0.51009227      -0.56529570      -0.68797526        6 
C      -0.93108717       1.62604268      -0.47988984        6 
C       1.71957990       0.32112961      -0.44361588        6 
O      -0.70213689       1.81809341       0.82922934        8 
O      -1.22921579       2.50987708      -1.24737629        8 
O       2.82515817      -0.43228411      -0.25690747        8 
O       1.75450148       1.52434543      -0.51070716        8 
C       4.06269493       0.28646926      -0.09867842        6 
C      -0.65465234       3.18843977       1.25875213        6 
C      -1.80510475      -0.76338493      -0.05986913        6 
C      -1.90014629      -2.13354776      -0.79391270        6 
C      -0.56228978      -2.80765773      -0.39458989        6 
C       0.13246333      -1.66678079       0.39187400        6 
O      -0.98159035      -1.07405039       1.07488988        8 
H      -1.13825003       0.16080306      -1.94376426        1 
H       0.77526093      -1.08472981      -1.61317322        1 
H       4.01644103       0.93914469       0.77427814        1 
H      -1.59731949       3.69430268       1.04355237        1 
H      -2.75728447      -2.69452116      -0.41805785        1 
H      -2.02720711      -2.01428386      -1.87187306        1 
H      -0.73025709      -3.65485721       0.27300791        1 
H       0.02974622      -3.15597612      -1.24302910        1 
H       4.82492689      -0.47798850       0.03473980        1 
H       4.26989334       0.88744550      -0.98539780        1 
H       0.16000709       3.70623044       0.74979585        1 
H      -0.47514423       3.14937200       2.33105536        1 
C       1.16674860      -2.10919793       1.40233541        6 
H       0.70078387      -2.81612892       2.09260132        1 
H       2.01186086      -2.59412215       0.91304041        1 
H       1.54241044      -1.26217381       1.97831745        1 
C      -3.13293845      -0.17687851       0.36646531        6 
H      -3.69708851      -0.91546772       0.94021290        1 
H      -2.99153247       0.70738704       0.98795828        1 
H      -3.72178390       0.10180190      -0.51158174        1 
