35
Lattice="0.0 0.0 0.0 0.0 0.0 0.0 0.0 0.0 0.0" Properties=species:S:1:pos:R:3:Z:I:1 pbc="F F F"
C      -0.13208679       0.59420216      -0.73591781        6 
C      -0.11090749      -0.93304745      -0.49967767        6 
C       0.75632548       1.37067281       0.23135912        6 
C       1.19512754      -1.67969439      -0.30512115        6 
O       0.75376680       2.68785982      -0.08530549        8 
O       1.45455301       0.90937468       1.09600453        8 
O       2.26211789      -0.95827843      -0.69171330        8 
O       1.25294717      -2.86646785      -0.07904408        8 
C       3.52509566      -1.64602028      -0.69293698        6 
C       1.58600437       3.53166746       0.73031922        6 
C      -1.64070707       0.85206688      -0.32009333        6 
C      -2.58314920      -0.02079208      -1.21247739        6 
C      -2.53836470      -1.39729469      -0.49609331        6 
C      -1.34388685      -1.17486930       0.45649068        6 
O      -1.64740240       0.15171024       0.93725139        8 
H       0.09197739       0.89272497      -1.75927891        1 
H      -0.39385078      -1.37511398      -1.46376685        1 
H       3.49379223      -2.50594596      -1.36422543        1 
H       2.62280647       3.19405660       0.69472583        1 
H      -3.58925060       0.40012110      -1.22105626        1 
H      -2.23728303      -0.06225122      -2.24813937        1 
H      -3.44312405      -1.56926173       0.09057463        1 
H      -2.39393633      -2.24445623      -1.16996501        1 
H       4.25153502      -0.91321381      -1.03723740        1 
H       3.77185212      -1.98346961       0.31449362        1 
H       1.24196398       3.52054952       1.76606462        1 
H       1.49130094       4.52928477       0.30677564        1 
C      -1.18610674      -2.13188750       1.61113393        6 
H      -2.10523568      -2.13863756       2.20186211        1 
H      -0.98164762      -3.13944801       1.24825821        1 
H      -0.35846942      -1.82708911       2.25434304        1 
C      -2.12368354       2.27474228      -0.13854389        6 
H      -3.17747550       2.25897564       0.14912308        1 
H      -1.56335695       2.79934282       0.63277923        1 
H      -2.02584526       2.83547798      -1.07126527        1 
