35
Lattice="0.0 0.0 0.0 0.0 0.0 0.0 0.0 0.0 0.0" Properties=species:S:1:pos:R:3:Z:I:1 pbc="F F F"
C      -0.37189469       0.60847748      -0.90658710        6 
C      -0.02638798      -0.85335093      -0.54883382        6 
C       0.37263985       1.71020622      -0.16405602        6 
C       1.40714518      -1.33926605      -0.44437338        6 
O       1.06322030       1.26823005       0.89785571        8 
O       0.22155824       2.88579060      -0.40872345        8 
O       2.31984092      -0.40718301      -0.77273601        8 
O       1.68907948      -2.50736299      -0.30063576        8 
C       3.68148832      -0.86213120      -0.87208056        6 
C       1.66338470       2.27482154       1.72784641        6 
C      -1.85732317       0.61994861      -0.33991684        6 
C      -2.69014120      -0.50672350      -1.03851335        6 
C      -2.29884261      -1.76812711      -0.21962682        6 
C      -1.08941890      -1.22021028       0.56495549        6 
O      -1.60767518       0.06497513       0.96428977        8 
H      -0.32571349       0.82084480      -1.97438134        1 
H      -0.32027477      -1.43695099      -1.42841021        1 
H       3.76423989      -1.66692562      -1.60409152        1 
H       0.89616510       2.91489181       2.16670543        1 
H      -3.75522330      -0.28641864      -0.96071647        1 
H      -2.45060585      -0.59131782      -2.10146831        1 
H      -3.09014357      -2.04818665       0.47916634        1 
H      -2.05253457      -2.63721779      -0.83313546        1 
H       4.25351616       0.00752431      -1.18785235        1 
H       4.03258378      -1.22172978       0.09635000        1 
H       2.35298556       2.88893726       1.14636115        1 
H       2.19579936       1.72997399       2.50437388        1 
C      -0.61392444      -2.00024567       1.76418515        6 
H      -1.44138566      -2.13893306       2.46392838        1 
H      -0.23305283      -2.97531135       1.45866919        1 
H       0.18786193      -1.46252415       2.27490713        1 
C      -2.58543881       1.94216349      -0.24612772        6 
H      -3.56717301       1.77677145       0.20380492        1 
H      -2.04189048       2.67167422       0.35065073        1 
H      -2.72659149       2.36302994      -1.24452003        1 
