35
Lattice="0.0 0.0 0.0 0.0 0.0 0.0 0.0 0.0 0.0" Properties=species:S:1:pos:R:3:Z:I:1 pbc="F F F"
C      -0.36315689       0.62361532      -0.86902648        6 
C      -0.04799056      -0.85520414      -0.52409009        6 
C       0.41746749       1.66867058      -0.07586540        6 
C       1.40076472      -1.25206606      -0.32666051        6 
O       1.25503499       1.13364722       0.83179391        8 
O       0.20449532       2.85611634      -0.14413365        8 
O       2.19941567      -0.52296000      -1.13998260        8 
O       1.79440403      -2.21057293       0.29062975        8 
C       3.59450297      -0.86783255      -1.13025598        6 
C       1.90048032       2.05611467       1.72555740        6 
C      -1.85656985       0.66318653      -0.34808181        6 
C      -2.68669114      -0.42530055      -1.10724904        6 
C      -2.35078711      -1.71553038      -0.31191031        6 
C      -1.15863128      -1.22103655       0.53391527        6 
O      -1.65777888       0.06982293       0.94957979        8 
H      -0.27747904       0.85564436      -1.93040891        1 
H      -0.27484880      -1.43087888      -1.43022283        1 
H       3.73486064      -1.91810340      -1.38998318        1 
H       1.15578232       2.61786215       2.29064602        1 
H      -3.74931450      -0.18515003      -1.06420883        1 
H      -2.40710999      -0.48479591      -2.16217832        1 
H      -3.17285134      -1.99876342       0.34884229        1 
H      -2.10259764      -2.57250896      -0.94219055        1 
H       4.05827333      -0.22241735      -1.87310697        1 
H       4.02199019      -0.68157187      -0.14332895        1 
H       2.52966644       2.75058167       1.16653421        1 
H       2.50304491       1.44012297       2.38949806        1 
C      -0.78526643      -2.04830534       1.73890222        6 
H      -1.66253909      -2.15753667       2.38157548        1 
H      -0.43536125      -3.03514328       1.43605690        1 
H       0.01277295      -1.56985671       2.30688015        1 
C      -2.56850536       1.99366860      -0.24122866        6 
H      -3.57190205       1.82634268       0.15743983        1 
H      -2.04235932       2.69229998       0.40450428        1 
H      -2.65898255       2.45058826      -1.22975081        1 
