35
Lattice="0.0 0.0 0.0 0.0 0.0 0.0 0.0 0.0 0.0" Properties=species:S:1:pos:R:3:Z:I:1 pbc="F F F"
C      -0.55669482       0.51373905       0.69939225        6 
C       0.87083649      -0.08792498       0.90754218        6 
C      -1.67823739      -0.44114835       0.34194622        6 
C       1.03505599      -1.56051083       0.55257258        6 
O      -2.86513205       0.20343458       0.44016938        8 
O      -1.59408933      -1.60910158       0.05804712        8 
O       1.07525743      -1.79094902      -0.76729354        8 
O       1.15953114      -2.42132130       1.39183666        8 
C       1.07573314      -3.17250775      -1.16343540        6 
C      -4.03476630      -0.57055876       0.11583304        6 
C      -0.27220524       1.64539406      -0.38157372        6 
C       0.31928911       2.84275528       0.39994401        6 
C       1.71066613       2.28467327       0.79743297        6 
C       1.73347090       0.90798683       0.06542501        6 
O       0.88235054       1.14505414      -1.06773930        8 
H      -0.88925810       0.99686046       1.61932895        1 
H       1.13993293      -0.03752154       1.96218534        1 
H       0.15159196      -3.64686948      -0.83060251        1 
H      -4.13018270      -1.42006110       0.79352737        1 
H       0.41250185       3.70060685      -0.26906137        1 
H      -0.29993540       3.14008745       1.24848409        1 
H       2.51581610       2.91798801       0.42193480        1 
H       1.84657290       2.17806635       1.87575491        1 
H       1.13198367      -3.16098487      -2.24989106        1 
H       1.93186673      -3.69814103      -0.73753242        1 
H      -3.97867268      -0.93532557      -0.91113017        1 
H      -4.87435620       0.11094365       0.23398027        1 
C       3.11160803       0.44761583      -0.35732394        6 
H       3.60888075       1.23855664      -0.92317608        1 
H       3.71851117       0.22496515       0.52507142        1 
H       3.05596860      -0.44427170      -0.97925647        1 
C      -1.36179669       1.97459291      -1.37728793        6 
H      -0.99015724       2.72231964      -2.08148054        1 
H      -1.65538682       1.08797521      -1.94360272        1 
H      -2.24443075       2.36813310      -0.87182234        1 
