35
Lattice="0.0 0.0 0.0 0.0 0.0 0.0 0.0 0.0 0.0" Properties=species:S:1:pos:R:3:Z:I:1 pbc="F F F"
C      -0.86997653       0.08122166      -0.88570039        6 
C       0.56915252      -0.51433806      -0.70271260        6 
C      -0.97995047       1.57826747      -0.61304323        6 
C       1.66190643       0.42295663      -0.22815725        6 
O      -1.25681432       1.88651563       0.66036577        8 
O      -0.84846432       2.39783607      -1.49192492        8 
O       2.86884331      -0.15487848      -0.43501125        8 
O       1.53877989       1.52931864       0.23249263        8 
C       4.01366816       0.60813939      -0.01222645        6 
C      -1.20459781       3.28528648       0.98992439        6 
C      -1.72069724      -0.90457030      -0.02014501        6 
C      -1.75787213      -2.26322352      -0.78349068        6 
C      -0.35262558      -2.84244881      -0.48658758        6 
C       0.28755466      -1.69092995       0.32560554        6 
O      -0.82885970      -1.19009902       1.07228698        8 
H      -1.15022177      -0.00507247      -1.93586394        1 
H       0.93053751      -0.93962553      -1.63857242        1 
H       3.99204181       0.75967794       1.06851639        1 
H      -1.91751193       3.85085094       0.38802997        1 
H      -2.54427194      -2.89661080      -0.37014948        1 
H      -1.96088918      -2.13198922      -1.84812873        1 
H      -0.41566790      -3.73471271       0.13962878        1 
H       0.22188911      -3.09788622      -1.37915331        1 
H       4.87926669       0.01421096      -0.29702148        1 
H       4.03013183       1.57835058      -0.51019861        1 
H      -0.19600019       3.66118105       0.81511242        1 
H      -1.45949622       3.34274526       2.04598676        1 
C       1.40060452      -2.09847081       1.26589239        6 
H       1.03782264      -2.88506046       1.93106259        1 
H       2.25958419      -2.47316066       0.70747321        1 
H       1.72768402      -1.25666226       1.88017605        1 
C      -3.07550704      -0.44173424       0.47104740        6 
H      -3.56456057      -1.25191762       1.01670763        1 
H      -2.98411511       0.42220704       1.12457006        1 
H      -3.70878148      -0.17393586      -0.38005729        1 
