35
Lattice="0.0 0.0 0.0 0.0 0.0 0.0 0.0 0.0 0.0" Properties=species:S:1:pos:R:3:Z:I:1 pbc="F F F"
C      -0.40188673       0.63376565       0.67258297        6 
C       0.81158291      -0.29928648       0.91425597        6 
C      -1.74978528      -0.06101859       0.64065761        6 
C       0.74491631      -1.70376862       0.33910278        6 
O      -2.72473809       0.75838375       0.19550283        8 
O      -1.96474428      -1.17184933       1.05913445        8 
O       0.01701041      -1.78793968      -0.78565322        8 
O       1.40264268      -2.61893492       0.77785192        8 
C      -0.04034113      -3.08227671      -1.40653739        6 
C      -4.06026571       0.21892309       0.21053228        6 
C       0.11600795       1.58748687      -0.48210445        6 
C       0.90493563       2.70211148       0.24575407        6 
C       2.09576968       1.89127734       0.82462107        6 
C       1.91600004       0.50497093       0.13221648        6 
O       1.19660802       0.83868342      -1.06546908        8 
H      -0.51158281       1.26123477       1.56510788        1 
H       1.05962556      -0.40920389       1.96851864        1 
H      -0.49308481      -3.80707691      -0.72808643        1 
H      -4.35419941      -0.04541387       1.22737922        1 
H       1.24871487       3.43713490      -0.48493915        1 
H       0.31269518       3.22210786       1.00182843        1 
H       3.05548168       2.32729366       0.54434293        1 
H       2.07448111       1.80658239       1.91350312        1 
H      -0.65689122      -2.95096064      -2.29327263        1 
H       0.96011221      -3.41957738      -1.68174671        1 
H      -4.11888556      -0.66804032      -0.42179709        1 
H      -4.69603591       1.01061390      -0.17996627        1 
C       3.20059459      -0.22212198      -0.19514000        6 
H       3.87058306       0.44592786      -0.74065344        1 
H       3.69809165      -0.54929076       0.72073243        1 
H       3.01619226      -1.10335080      -0.81033384        1 
C      -0.83441285       2.03688718      -1.56642124        6 
H      -0.27984335       2.62653487      -2.30023471        1 
H      -1.27969017       1.17934608      -2.07272050        1 
H      -1.63872143       2.64589962      -1.15334945        1 
