35
Lattice="0.0 0.0 0.0 0.0 0.0 0.0 0.0 0.0 0.0" Properties=species:S:1:pos:R:3:Z:I:1 pbc="F F F"
C      -0.87116480       0.13468970      -0.87659521        6 
C       0.52699159      -0.54807142      -0.70043926        6 
C      -0.95949342       1.61241221      -0.51868650        6 
C       1.70095311       0.36769061      -0.39334763        6 
O      -0.85747105       1.84290740       0.80031292        8 
O      -1.13693574       2.47767406      -1.34207829        8 
O       2.83250740      -0.35571542      -0.24551852        8 
O       1.69559908       1.57297154      -0.38952284        8 
C       4.04135150       0.39620904      -0.03056802        6 
C      -0.80194632       3.22589285       1.18770199        6 
C      -1.77716147      -0.81075463      -0.02367513        6 
C      -1.87440738      -2.17025235      -0.77667648        6 
C      -0.50645974      -2.81901801      -0.44870233        6 
C       0.18865011      -1.68824890       0.35233708        6 
O      -0.91388294      -1.12741559       1.08012440        8 
H      -1.16677645       0.10137172      -1.92501008        1 
H       0.81705497      -1.02710492      -1.63873453        1 
H       3.96715124       0.98402923       0.88559332        1 
H      -1.70407102       3.75221334       0.87171681        1 
H      -2.70161121      -2.75665298      -0.37358517        1 
H      -2.05012820      -2.03585583      -1.84582156        1 
H      -0.62600691      -3.69413995       0.19295213        1 
H       0.06367355      -3.12260778      -1.32901210        1 
H       4.83168296      -0.34631864       0.05426228        1 
H       4.22817632       1.06505019      -0.87191988        1 
H       0.07193999       3.69861296       0.73690850        1 
H      -0.72006746       3.21931062       2.27251811        1 
C       1.25124597      -2.15294972       1.32387735        6 
H       0.81292744      -2.90242857       1.98668950        1 
H       2.09713195      -2.59433610       0.79646972        1 
H       1.61975777      -1.32733322       1.93437396        1 
C      -3.10416392      -0.25846550       0.44973842        6 
H      -3.63875609      -1.02070487       1.02093261        1 
H      -2.96341362       0.61581277       1.08376878        1 
H      -3.72097990       0.02316237      -0.40832727        1 
