35
Lattice="0.0 0.0 0.0 0.0 0.0 0.0 0.0 0.0 0.0" Properties=species:S:1:pos:R:3:Z:I:1 pbc="F F F"
C       0.21110141       0.73952969       0.56598073        6 
C       0.26972765      -0.82704789       0.69416232        6 
C      -1.13039456       1.38017499       0.26450131        6 
C      -0.71185885      -1.60841892      -0.18827774        6 
O      -1.93021074       1.24889153       1.35071979        8 
O      -1.43419577       2.03941727      -0.69746676        8 
O      -1.91128713      -0.99863616      -0.27097762        8 
O      -0.48875420      -2.65673955      -0.73899313        8 
C      -2.89586851      -1.63476351      -1.10708795        6 
C      -3.25698854       1.78002991       1.22235239        6 
C       1.47137237       1.04806430      -0.32903908        6 
C       2.63500670       1.17826771       0.67952337        6 
C       2.67782240      -0.26026775       1.25050436        6 
C       1.75718496      -1.04671023       0.25699671        6 
O       1.77896403      -0.22762031      -0.92869123        8 
H       0.41776519       1.12362827       1.56826470        1 
H       0.08301025      -1.14068653       1.72459815        1 
H      -3.10938211      -2.64163127      -0.74650213        1 
H      -3.78910654       1.27932252       0.41128507        1 
H       3.55399701       1.41904616       0.14131863        1 
H       2.46112063       1.95106280       1.43141664        1 
H       3.68602624      -0.67484330       1.23588709        1 
H       2.31211015      -0.32805486       2.27837256        1 
H      -3.78018551      -1.00513835      -1.04067552        1 
H      -2.53967978      -1.68613139      -2.13654346        1 
H      -3.22769397       2.85228400       1.02199437        1 
H      -3.74479611       1.58182187       2.17449444        1 
C       2.26743805      -2.44413928      -0.03188006        6 
H       3.33001441      -2.38408279      -0.27944984        1 
H       2.15750311      -3.07536812       0.85449995        1 
H       1.73075879      -2.91079700      -0.85138362        1 
C       1.39426610       2.11906511      -1.39210929        6 
H       2.35961733       2.17955567      -1.90043792        1 
H       0.61473048       1.89843794      -2.11817687        1 
H       1.17125391       3.09041733      -0.94594958        1 
