35
Lattice="0.0 0.0 0.0 0.0 0.0 0.0 0.0 0.0 0.0" Properties=species:S:1:pos:R:3:Z:I:1 pbc="F F F"
C       0.13248718       0.72875605       0.59528414        6 
C       0.34465627      -0.82705698       0.65444638        6 
C      -1.17693373       1.19955524       0.00165864        6 
C      -0.66845770      -1.61924240      -0.15822056        6 
O      -1.84193343       1.97626719       0.89319981        8 
O      -1.59720315       0.96327400      -1.10240419        8 
O      -1.69513972      -1.99001040       0.65181198        8 
O      -0.64576600      -1.85161247      -1.33587891        8 
C      -2.80156611      -2.63691272      -0.00551552        6 
C      -3.10765017       2.49628141       0.44641058        6 
C       1.42186381       1.19479642      -0.18950950        6 
C       2.55939830       1.23552202       0.85997836        6 
C       2.75451144      -0.27713674       1.14493772        6 
C       1.80242363      -0.93300972       0.09843407        6 
O       1.77838891       0.04117121      -0.95702021        8 
H       0.16278859       1.12503420       1.60867087        1 
H       0.27435521      -1.17082761       1.68614859        1 
H      -2.47784261      -3.56750723      -0.47420768        1 
H      -3.79458104       1.67942377       0.21894453        1 
H       3.45196705       1.67159750       0.40670029        1 
H       2.30353958       1.82281891       1.74377211        1 
H       3.78272338      -0.59173383       0.95922029        1 
H       2.50047061      -0.56336848       2.16828393        1 
H      -3.52881227      -2.83659306       0.77867712        1 
H      -3.22219222      -1.97920402      -0.76769207        1 
H      -2.97615764       3.11171518      -0.44488199        1 
H      -3.48445820       3.09359996       1.27379737        1 
C       2.25366394      -2.28533489      -0.41007991        6 
H       3.28600384      -2.22106036      -0.76112254        1 
H       2.21268003      -3.02301707       0.39713303        1 
H       1.62337316      -2.62167422      -1.23134588        1 
C       1.28231662       2.41181627      -1.07511439        6 
H       2.23822654       2.63056013      -1.55553568        1 
H       0.53321154       2.23953947      -1.84828351        1 
H       0.98751456       3.28259427      -0.48237120        1 
