35
Lattice="0.0 0.0 0.0 0.0 0.0 0.0 0.0 0.0 0.0" Properties=species:S:1:pos:R:3:Z:I:1 pbc="F F F"
C      -0.48672089       0.76421196      -0.80505352        6 
C      -0.28751935      -0.79280274      -0.88314596        6 
C       0.67949641       1.70181616      -0.56636887        6 
C       1.12821470      -1.28122409      -0.60685060        6 
O       1.64948993       1.19799229       0.21286918        8 
O       0.68636525       2.83835979      -0.97968791        8 
O       1.38433523      -1.54612402       0.68175314        8 
O       1.93505150      -1.44659714      -1.49307435        8 
C       2.73365507      -1.93348510       0.98404784        6 
C       2.75136130       2.07691212       0.50588375        6 
C      -1.58416400       0.88313562       0.33969671        6 
C      -2.93977653       0.56631542      -0.32966509        6 
C      -2.78427496      -0.94835064      -0.61493122        6 
C      -1.42378036      -1.27825353       0.07510645        6 
O      -1.35862450      -0.29540611       1.12386216        8 
H      -0.91572627       1.12356631      -1.73905552        1 
H      -0.47736883      -1.11865269      -1.90617067        1 
H       3.42832686      -1.15643021       0.66141115        1 
H       2.39403093       2.98772533       0.98752200        1 
H      -3.74552998       0.75373997       0.38283428        1 
H      -3.12617139       1.16912731      -1.22033364        1 
H      -3.58389030      -1.52783243      -0.15091570        1 
H      -2.77474010      -1.19213770      -1.67942501        1 
H       2.76489832      -2.05414412       2.06478447        1 
H       2.98872221      -2.86903074       0.48352935        1 
H       3.28168888       2.33657284      -0.41126363        1 
H       3.39692197       1.51538183       1.17739885        1 
C      -1.34790501      -2.68889958       0.62066509        6 
H      -2.23350602      -2.89602676       1.22544327        1 
H      -1.32494195      -3.40648607      -0.20509296        1 
H      -0.46136391      -2.83136097       1.23379509        1 
C      -1.54766677       2.12088651       1.20619209        6 
H      -2.34282055       2.06936154       1.95318432        1 
H      -0.59285428       2.20592921       1.72911140        1 
H      -1.69122590       3.01729565       0.59975909        1 
