35
Lattice="0.0 0.0 0.0 0.0 0.0 0.0 0.0 0.0 0.0" Properties=species:S:1:pos:R:3:Z:I:1 pbc="F F F"
C       0.03370686       0.64651339       0.69008284        6 
C       0.46450121      -0.84228465       0.59540902        6 
C      -1.13540548       1.01534329      -0.20075287        6 
C      -0.59976190      -1.87459723       0.27104980        6 
O      -1.86808057       2.00072746       0.37010684        8 
O      -1.38324329       0.54880869      -1.28326489        8 
O      -1.81930045      -1.45959731       0.67624688        8 
O      -0.38540228      -2.99522118      -0.12026600        8 
C      -2.90343876      -2.38462896       0.47989631        6 
C      -2.98627405       2.47392708      -0.40183446        6 
C       1.33237690       1.33510755       0.13195425        6 
C       2.49893467       1.04154096       1.12318108        6 
C       2.90892426      -0.40087708       0.71907720        6 
C       1.77925798      -0.76721375      -0.27489569        6 
O       1.63086982       0.48111130      -0.97829872        8 
H      -0.18713966       0.96087011       1.70860095        1 
H       0.75820056      -1.15733847       1.60350736        1 
H      -2.71874210      -3.31378210       1.02127932        1 
H      -3.67115092       1.65328391      -0.62052477        1 
H       3.31330607       1.75067195       0.96727729        1 
H       2.17936758       1.12682313       2.16432421        1 
H       3.86381791      -0.40314284       0.19024753        1 
H       2.97994161      -1.09497786       1.55886377        1 
H      -3.78618631      -1.88192814       0.86912106        1 
H      -3.02419347      -2.60179521      -0.58222531        1 
H      -2.64528556       2.91387372      -1.34059503        1 
H      -3.47162710       3.22446946       0.21833142        1 
C       2.08274900      -1.87953259      -1.24966455        6 
H       3.01119277      -1.64566934      -1.77668882        1 
H       2.19437504      -2.83177023      -0.73047770        1 
H       1.28046315      -1.98706942      -1.97945066        1 
C       1.20116801       2.77477901      -0.31390616        6 
H       2.16059070       3.13385076      -0.69258061        1 
H       0.46257506       2.87347725      -1.11169326        1 
H       0.89603357       3.40770608       0.52282009        1 
