35
Lattice="0.0 0.0 0.0 0.0 0.0 0.0 0.0 0.0 0.0" Properties=species:S:1:pos:R:3:Z:I:1 pbc="F F F"
C      -0.48058149       0.76287280      -0.81806097        6 
C      -0.31180134      -0.79937551      -0.89097080        6 
C       0.73527338       1.64770538      -0.63598123        6 
C       1.09568591      -1.29547608      -0.58777704        6 
O       1.57107759       1.22776080       0.32988748        8 
O       0.90401714       2.66885687      -1.26015584        8 
O       1.33079459      -1.54977251       0.70608021        8 
O       1.91633410      -1.46993424      -1.45996496        8 
C       2.67518194      -1.93365984       1.03465575        6 
C       2.73189222       2.04556715       0.56477496        6 
C      -1.55029219       0.91297599       0.34227599        6 
C      -2.92601859       0.64084383      -0.30533900        6 
C      -2.81185631      -0.87315518      -0.61418318        6 
C      -1.45988317      -1.25070492       0.06960508        6 
O      -1.35654124      -0.27463998       1.12209423        8 
H      -0.91505953       1.11960797      -1.75028832        1 
H      -0.49718468      -1.13032673      -1.91285788        1 
H       3.37354253      -1.15334205       0.72786508        1 
H       2.43581543       3.06358008       0.82146342        1 
H      -3.71134913       0.83637256       0.42756426        1 
H      -3.11700132       1.25985326      -1.18390555        1 
H      -3.62815175      -1.43869246      -0.16216600        1 
H      -2.80638044      -1.09745824      -1.68300492        1 
H       2.68481286      -2.05535858       2.11560204        1 
H       2.94353080      -2.86739130       0.53787530        1 
H       3.36423244       2.06669963      -0.32386896        1 
H       3.25177041       1.57554721       1.39672265        1 
C      -1.42605666      -2.66559232       0.60798005        6 
H      -2.30426311      -2.83990602       1.23364544        1 
H      -1.45270838      -3.37921720      -0.22099120        1 
H      -0.53178243      -2.84639063       1.19969898        1 
C      -1.45387583       2.15132577       1.20343791        6 
H      -2.24308182       2.14146854       1.95839603        1 
H      -0.49043969       2.19549576       1.71400477        1 
H      -1.56794744       3.04923896       0.59133602        1 
