35
Lattice="0.0 0.0 0.0 0.0 0.0 0.0 0.0 0.0 0.0" Properties=species:S:1:pos:R:3:Z:I:1 pbc="F F F"
C       0.09992735       0.94787802       0.53630053        6 
C       0.38291753      -0.57228713       0.87837517        6 
C      -1.29093614       1.17612402      -0.01833472        6 
C      -0.77852721      -1.45232903       0.42573207        6 
O      -2.11820277       1.58987940       0.96040166        8 
O      -1.63427973       1.03432852      -1.16768750        8 
O      -0.54971400      -2.15330704      -0.68958322        8 
O      -1.84303609      -1.44957638       1.00234430        8 
C      -1.67701157      -2.86061926      -1.24175911        6 
C      -3.51116295       1.68795263       0.61002156        6 
C       1.30740666       1.28635332      -0.40735298        6 
C       2.51286507       1.53877658       0.53138885        6 
C       2.78634974       0.11194724       1.06577264        6 
C       1.78956601      -0.75088903       0.22818710        6 
O       1.65073188       0.01270420      -0.98226034        8 
H       0.16203260       1.53447404       1.45203102        1 
H       0.42308876      -0.69872896       1.96132789        1 
H      -2.45757000      -2.15082046      -1.51773980        1 
H      -3.89273387       0.70154801       0.34242318        1 
H       3.35310736       1.90928220      -0.05873728        1 
H       2.29505912       2.27153416       1.31094178        1 
H       3.81068790      -0.20352865       0.86234346        1 
H       2.61588567       0.00926297       2.13965633        1 
H      -1.29189431      -3.36732354      -2.12370663        1 
H      -2.07057839      -3.57934031      -0.52192014        1 
H      -3.65073799       2.37576741      -0.22497437        1 
H      -4.00862459       2.05890220       1.50323390        1 
C       2.29464757      -2.15255343      -0.04807939        6 
H       3.31092605      -2.09931439      -0.44477530        1 
H       2.32184039      -2.72941760       0.88119171        1 
H       1.66159873      -2.67061641      -0.76294375        1 
C       1.09345250       2.32892886      -1.48167296        6 
H       2.02230769       2.47787196      -2.03711936        1 
H       0.30916660       2.02418917      -2.17233528        1 
H       0.80915675       3.28306084      -1.02826935        1 
