35
Lattice="0.0 0.0 0.0 0.0 0.0 0.0 0.0 0.0 0.0" Properties=species:S:1:pos:R:3:Z:I:1 pbc="F F F"
C      -0.73695621      -0.25508652      -0.58454226        6 
C       0.75895684       0.07391827      -0.77576713        6 
C      -1.69801998       0.91663451      -0.53746889        6 
C       1.25502048       1.19041598       0.13714729        6 
O      -2.94657714       0.49683510      -0.22498968        8 
O      -1.44028815       2.05604169      -0.82764733        8 
O       2.52309596       1.53274703      -0.19854225        8 
O       0.62225286       1.76867286       0.97982058        8 
C       3.09707350       2.61697620       0.55309102        6 
C      -3.96877106       1.51017546      -0.21354967        6 
C      -0.71248212      -1.43449468       0.47530167        6 
C      -0.60422673      -2.71589641      -0.37878016        6 
C       0.77385129      -2.48342723      -1.05733234        6 
C       1.35505109      -1.28880020      -0.23291189        6 
O       0.62654407      -1.37022913       1.00552687        8 
H      -1.05958502      -0.71700007      -1.52648306        1 
H       1.03964302       0.29053018      -1.80567217        1 
H       3.13692777       2.36875106       1.61509274        1 
H      -4.07628402       1.95710946      -1.20325307        1 
H      -0.58052446      -3.58905821       0.27675318        1 
H      -1.43074196      -2.83267222      -1.08309677        1 
H       1.42328862      -3.35477927      -0.96575462        1 
H       0.69557976      -2.24192443      -2.12030284        1 
H       4.09984550       2.74914589       0.15237263        1 
H       2.50592261       3.52443926       0.42054156        1 
H      -3.72246846       2.29009977       0.50807598        1 
H      -4.88288719       0.99521328       0.07479447        1 
C       2.84445442      -1.38699838       0.01579528        6 
H       3.07593409      -2.38107689       0.40520362        1 
H       3.39699972      -1.23955267      -0.91509223        1 
H       3.18673784      -0.64475479       0.73469588        1 
C      -1.71270847      -1.43772403       1.60518026        6 
H      -1.47835224      -2.26219094       2.28290806        1 
H      -1.66716384      -0.50167227       2.16404957        1 
H      -2.72596184      -1.56439694       1.22493169        1 
