35
Lattice="0.0 0.0 0.0 0.0 0.0 0.0 0.0 0.0 0.0" Properties=species:S:1:pos:R:3:Z:I:1 pbc="F F F"
C       0.18570251       0.94816467       0.54686409        6 
C       0.35443486      -0.59339692       0.87297356        6 
C      -1.18810857       1.29474400       0.00145344        6 
C      -0.84811587      -1.41451580       0.43076432        6 
O      -2.06315281       1.34619421       1.02798907        8 
O      -1.49473026       1.52615562      -1.14165568        8 
O      -0.81180074      -1.74699121      -0.86990448        8 
O      -1.78546113      -1.66186273       1.15311095        8 
C      -1.98126619      -2.39581489      -1.40007209        6 
C      -3.44592617       1.54113073       0.68423137        6 
C       1.43686741       1.21803832      -0.35531061        6 
C       2.64739935       1.31198777       0.61298279        6 
C       2.81367610      -0.16527746       1.04936478        6 
C       1.72904989      -0.87996115       0.18985350        6 
O       1.66844449      -0.05489000      -0.98453845        8 
H       0.26880234       1.50564234       1.48084102        1 
H       0.40819850      -0.73771201       1.95136331        1 
H      -2.84037403      -1.72557976      -1.34171448        1 
H      -3.79581054       0.72186497       0.05437994        1 
H       3.52140615       1.66263673       0.06118943        1 
H       2.47210378       2.00104093       1.44183538        1 
H       3.80175660      -0.54929814       0.79054156        1 
H       2.66369140      -0.32470407       2.11920698        1 
H      -1.74219326      -2.61443217      -2.43816809        1 
H      -2.19685370      -3.31195087      -0.84864663        1 
H      -3.58266557       2.48780237       0.15946703        1 
H      -3.98075617       1.54229972       1.63101423        1 
C       2.05506022      -2.31750179      -0.15729824        6 
H       3.05915543      -2.37385507      -0.58336300        1 
H       2.03139267      -2.93568637       0.74485887        1 
H       1.34635947      -2.71856689      -0.87912730        1 
C       1.35513709       2.32591825      -1.38271730        6 
H       2.31589544       2.41748142      -1.89423266        1 
H       0.57253522       2.12540224      -2.11030775        1 
H       1.13424026       3.27882909      -0.89318472        1 
