35
Lattice="0.0 0.0 0.0 0.0 0.0 0.0 0.0 0.0 0.0" Properties=species:S:1:pos:R:3:Z:I:1 pbc="F F F"
C      -0.38744120       0.48801879      -0.71668619        6 
C       0.25305551      -0.92702654      -0.49877790        6 
C       0.29849797       1.59185996       0.09146058        6 
C       1.71546385      -0.95108588      -0.08127927        6 
O      -0.47501146       2.68444014       0.22521936        8 
O       1.44943016       1.57108682       0.45374877        8 
O       2.46864483      -0.53229285      -1.12653131        8 
O       2.18200029      -1.38614960       0.93946335        8 
C       3.87257141      -0.38154250      -0.86126813        6 
C       0.13349474       3.81391026       0.88154187        6 
C      -1.86201818       0.16047838      -0.28192966        6 
C      -2.41156299      -0.93241908      -1.26001580        6 
C      -1.83822617      -2.23629604      -0.65345529        6 
C      -0.83258924      -1.66292753       0.37025253        6 
O      -1.60474101      -0.57689789       0.92622873        8 
H      -0.32718910       0.80140505      -1.76189321        1 
H       0.27972240      -1.40724734      -1.48020420        1 
H       4.31041717      -1.33018578      -0.54716835        1 
H       1.00778511       4.15203153       0.32379063        1 
H      -3.50186677      -0.92820309      -1.25723590        1 
H      -2.08496469      -0.75687446      -2.28779824        1 
H      -2.60863094      -2.80149296      -0.12491031        1 
H      -1.36832583      -2.89729931      -1.38476662        1 
H       4.31228752      -0.04910989      -1.79949105        1 
H       4.02108126       0.36662147      -0.08112210        1 
H       0.43438413       3.54708314       1.89525602        1 
H      -0.63495600       4.58365187       0.89827269        1 
C      -0.40409679      -2.61639197       1.46131986        6 
H      -1.29663012      -3.02643770       1.94041294        1 
H       0.17711782      -3.44150396       1.04324765        1 
H       0.21235098      -2.11798133       2.20584559        1 
C      -2.86303600       1.26710952      -0.01915764        6 
H      -3.83262294       0.81435738       0.20093819        1 
H      -2.57035761       1.88829164       0.82259869        1 
H      -2.97156277       1.90750270      -0.89773844        1 
