35
Lattice="0.0 0.0 0.0 0.0 0.0 0.0 0.0 0.0 0.0" Properties=species:S:1:pos:R:3:Z:I:1 pbc="F F F"
C       0.15784279       0.74805634       0.57889933        6 
C       0.39590194      -0.81171376       0.63912919        6 
C      -1.14752295       1.20027919      -0.04821332        6 
C      -0.66843148      -1.71319134       0.02137936        6 
O      -2.02804154       1.55966844       0.91450430        8 
O      -1.36785600       1.33898369      -1.22587060        8 
O      -1.90736594      -1.23860609       0.26728015        8 
O      -0.47659926      -2.77615890      -0.51255413        8 
C      -3.00460974      -2.02491962      -0.23206533        6 
C      -3.31755042       1.99028300       0.45184967        6 
C       1.45466146       1.23534852      -0.15879176        6 
C       2.58907836       1.21112246       0.89747576        6 
C       2.81421024      -0.30969168       1.07562113        6 
C       1.83722819      -0.91284334       0.02241802        6 
O       1.79237360       0.11180870      -0.98605139        8 
H       0.14155342       1.13588985       1.59688893        1 
H       0.41545252      -1.12710056       1.68712351        1 
H      -2.96280392      -3.03778426       0.17013840        1 
H      -3.78753812       1.20796278      -0.14662598        1 
H       3.47517474       1.69782316       0.48572019        1 
H       2.31739739       1.72969734       1.81886077        1 
H       3.83850788      -0.59481438       0.83104395        1 
H       2.60372507      -0.66814014       2.08589552        1 
H      -3.90292921      -1.51388297       0.10715137        1 
H      -2.97304265      -2.06417846      -1.32162336        1 
H      -3.22827717       2.89435232      -0.15299649        1 
H      -3.89932215       2.18727638       1.34993091        1 
C       2.31369924      -2.21887835      -0.57780109        6 
H       3.34649989      -2.09206323      -0.91188650        1 
H       2.28284538      -3.01948013       0.16463591        1 
H       1.69855214      -2.51978663      -1.42146405        1 
C       1.37830252       2.50809349      -0.97391894        6 
H       2.36379609       2.73031035      -1.38911585        1 
H       0.66258111       2.41276104      -1.78790204        1 
H       1.07818747       3.34702799      -0.33883520        1 
