35
Lattice="0.0 0.0 0.0 0.0 0.0 0.0 0.0 0.0 0.0" Properties=species:S:1:pos:R:3:Z:I:1 pbc="F F F"
C      -0.72472853       0.29512958      -0.93103905        6 
C       0.47477597      -0.64669895      -0.58789189        6 
C      -0.65718420       1.75869270      -0.51822098        6 
C       1.80396799      -0.03380663      -0.18914110        6 
O      -0.51328477       1.93971084       0.79587644        8 
O      -0.82809229       2.66203184      -1.30778048        8 
O       2.80169229      -0.67565983      -0.85229772        8 
O       2.01670163       0.84092594       0.61058117        8 
C       4.14045059      -0.25328505      -0.53505645        6 
C      -0.39940057       3.29838354       1.24679023        6 
C      -1.88480542      -0.46670568      -0.18927607        6 
C      -2.09359635      -1.83761041      -0.90218229        6 
C      -0.93474272      -2.68731554      -0.31778646        6 
C      -0.16361337      -1.61746758       0.49070523        6 
O      -1.23950682      -0.84576191       1.03620086        8 
H      -0.89298623       0.31636378      -2.00667763        1 
H       0.69889690      -1.23599128      -1.47572202        1 
H       4.35360922      -0.42003824       0.52215880        1 
H      -1.28621261       3.87264311       0.97294816        1 
H      -3.06786808      -2.24900714      -0.63403581        1 
H      -2.05966475      -1.74398770      -1.98968649        1 
H      -1.31000581      -3.45275813       0.36487116        1 
H      -0.31716914      -3.17656010      -1.07307478        1 
H       4.79148996      -0.86285272      -1.15795884        1 
H       4.27064060       0.80540911      -0.76367495        1 
H       0.48461877       3.76447127       0.80904755        1 
H      -0.29780852       3.23376292       2.32754156        1 
C       0.74746719      -2.12548755       1.58306430        6 
H       0.18371810      -2.76135508       2.26913588        1 
H       1.56141338      -2.71672441       1.15459005        1 
H       1.17510940      -1.29597313       2.14840900        1 
C      -3.15330826       0.31435249       0.07259187        6 
H      -3.87199832      -0.31391738       0.60299459        1 
H      -2.95542037       1.19726687       0.68049066        1 
H      -3.60266925       0.63246143      -0.87192921        1 
