35
Lattice="0.0 0.0 0.0 0.0 0.0 0.0 0.0 0.0 0.0" Properties=species:S:1:pos:R:3:Z:I:1 pbc="F F F"
C      -0.36389670       0.62816571      -0.87829718        6 
C      -0.01828762      -0.83473904      -0.51006946        6 
C       0.35669556       1.70117838      -0.06041907        6 
C       1.42959189      -1.25338410      -0.35914473        6 
O       1.23528647       1.19492112       0.82478006        8 
O       0.05746913       2.87186850      -0.07663626        8 
O       2.24698530      -0.45020715      -1.07347908        8 
O       1.79727671      -2.29738958       0.12435375        8 
C       3.62593913      -0.85107656      -1.14045963        6 
C       1.80894347       2.12884518       1.75425460        6 
C      -1.86968046       0.62055362      -0.37966377        6 
C      -2.64998793      -0.52987833      -1.10228104        6 
C      -2.28134464      -1.77418871      -0.24950517        6 
C      -1.10720959      -1.20405420       0.57157348        6 
O      -1.65535426       0.08099583       0.94061401        8 
H      -0.26281598       0.85375208      -1.93985873        1 
H      -0.26397000      -1.42555697      -1.40186437        1 
H       3.71747744      -1.84052392      -1.59147478        1 
H       1.02400618       2.61160856       2.33788180        1 
H      -3.72057566      -0.32536175      -1.08198089        1 
H      -2.35580402      -0.62345322      -2.15068962        1 
H      -3.09682768      -2.05080220       0.42218654        1 
H      -2.00394566      -2.65093366      -0.83897692        1 
H       4.11580703      -0.10067951      -1.75713206        1 
H       4.06507542      -0.87181121      -0.14167962        1 
H       2.38485348       2.88929520       1.22461016        1 
H       2.45622071       1.53573334       2.39680979        1 
C      -0.68011576      -1.96541027       1.80075538        6 
H      -1.53887301      -2.08834145       2.46536758        1 
H      -0.28861450      -2.94537788       1.52895700        1 
H       0.10363865      -1.42599613       2.33517800        1 
C      -2.64595452       1.91807460      -0.32807723        6 
H      -3.64725549       1.71526490       0.05957498        1 
H      -2.16541189       2.66271151       0.30051453        1 
H      -2.74237423       2.33512150      -1.33374108        1 
