35
Lattice="0.0 0.0 0.0 0.0 0.0 0.0 0.0 0.0 0.0" Properties=species:S:1:pos:R:3:Z:I:1 pbc="F F F"
C       0.40306924       0.83243439       0.63591942        6 
C       0.16633361      -0.72745120       0.58738861        6 
C      -0.67281735       1.67134910      -0.04506919        6 
C      -1.14203446      -1.15664350      -0.04404474        6 
O      -1.89079398       1.31304210       0.42487202        8 
O      -0.51538249       2.58618830      -0.81054029        8 
O      -2.00125594      -1.59773596       0.90214744        8 
O      -1.38405340      -1.19890244      -1.22556325        8 
C      -3.29239880      -2.01442876       0.42917407        6 
C      -3.02149162       1.99672198      -0.14538103        6 
C       1.84855387       0.92916748       0.04658098        6 
C       2.80804663       0.30798469       1.10757446        6 
C       2.59161798      -1.21053286       0.89779390        6 
C       1.46004302      -1.21463821      -0.16037204        6 
O       1.81056176      -0.08490275      -0.97343946        8 
H       0.38574220       1.16290797       1.67845001        1 
H       0.15268354      -1.11741186       1.60414743        1 
H      -3.19586405      -2.82991971      -0.28921177        1 
H      -3.09640608       1.77104769      -1.21026557        1 
H       3.83591066       0.60118514       0.88890452        1 
H       2.57656443       0.64688520       2.12021735        1 
H       3.48066116      -1.68356416       0.47630599        1 
H       2.32075010      -1.74935743       1.80768310        1 
H      -3.83415893      -2.34395131       1.31322758        1 
H      -3.80863931      -1.17864789      -0.04667297        1 
H      -2.92788726       3.07439392      -0.00713302        1 
H      -3.88883576       1.61528998       0.38935812        1 
C       1.36464013      -2.47479027      -0.99215547        6 
H       2.34275627      -2.70017366      -1.42265528        1 
H       1.06357491      -3.32020648      -0.36615691        1 
H       0.64111328      -2.35944571      -1.79725912        1 
C       2.33426138       2.24660227      -0.52093894        6 
H       3.37627931       2.13672385      -0.83077109        1 
H       1.73368049       2.55826020      -1.37039906        1 
H       2.28134637       3.03054988       0.23951242        1 
