35
Lattice="0.0 0.0 0.0 0.0 0.0 0.0 0.0 0.0 0.0" Properties=species:S:1:pos:R:3:Z:I:1 pbc="F F F"
C      -0.40716847       0.77822100      -0.85722961        6 
C      -0.36822873      -0.79698507      -0.85437119        6 
C       0.88798453       1.54290053      -0.64361747        6 
C       0.97308064      -1.48315134      -0.65642729        6 
O       1.41753956       1.39118593       0.57899405        8 
O       1.36469747       2.26838371      -1.48708286        8 
O       1.46907665      -1.37005144       0.58413553        8 
O       1.51545573      -2.12028513      -1.53117077        8 
C       2.72605463      -2.02451848       0.82704423        6 
C       2.62900175       2.11991280       0.84089239        6 
C      -1.52863092       1.05481922       0.21346538        6 
C      -2.88278386       0.70077941      -0.45796776        6 
C      -2.84314145      -0.84760020      -0.45042445        6 
C      -1.47090218      -1.12599842       0.22094399        6 
O      -1.35451810      -0.02842462       1.13940713        8 
H      -0.73904055       1.11676812      -1.83744100        1 
H      -0.68866172      -1.15145457      -1.83303532        1 
H       3.48788887      -1.66099292       0.13583442        1 
H       2.45358393       3.19455991       0.76569620        1 
H      -3.70357597       1.08150914       0.15263829        1 
H      -2.97966520       1.13237967      -1.45603997        1 
H      -3.64126118      -1.26277600       0.16777110        1 
H      -2.92242853      -1.29376055      -1.44357195        1 
H       2.98567532      -1.77523066       1.85352967        1 
H       2.62427064      -3.10471894       0.70739180        1 
H       3.40733601       1.83629424       0.13083711        1 
H       2.91384930       1.84742647       1.85468960        1 
C      -1.37362291      -2.45573766       0.93581404        6 
H      -2.20898072      -2.56128239       1.63128390        1 
H      -1.42243748      -3.27662069       0.21465269        1 
H      -0.44284656      -2.53187038       1.49551619        1 
C      -1.49819143       2.39251171       0.91891503        6 
H      -2.33355881       2.45879332       1.61930075        1 
H      -0.56981425       2.52210976       1.47381038        1 
H      -1.59392440       3.20426706       0.19247030        1 
