35
Lattice="0.0 0.0 0.0 0.0 0.0 0.0 0.0 0.0 0.0" Properties=species:S:1:pos:R:3:Z:I:1 pbc="F F F"
C      -0.38274929       0.58410532      -0.86274735        6 
C      -0.23547906      -0.96375265      -0.59007413        6 
C       0.83672573       1.42729122      -0.54488923        6 
C       1.09620178      -1.38422902       0.01969930        6 
O       1.11765377       1.44015353       0.77412920        8 
O       1.51300950       1.98398028      -1.37456721        8 
O       2.09913934      -0.97051869      -0.78729807        8 
O       1.28303033      -2.04843005       1.00617847        8 
C       3.43554839      -1.29149690      -0.36406998        6 
C       2.30359352       2.15409012       1.16273841        6 
C      -1.68824200       0.91572239      -0.05321423        6 
C      -2.87466411       0.40364067      -0.90662267        6 
C      -2.72821005      -1.12937417      -0.74731561        6 
C      -1.52958071      -1.24592167       0.24204759        6 
O      -1.65310268      -0.03889825       1.01844931        8 
H      -0.55046649       0.75355973      -1.92539730        1 
H      -0.27419385      -1.49387971      -1.54534857        1 
H       3.58755502      -2.37207461      -0.36829916        1 
H       2.20527785       3.21525940       0.92788318        1 
H      -3.81176607       0.76023268      -0.47513374        1 
H      -2.82666871       0.74782160      -1.94172476        1 
H      -3.61819672      -1.57175256      -0.29743568        1 
H      -2.53861758      -1.64882830      -1.68917030        1 
H       4.08964717      -0.80748096      -1.08566128        1 
H       3.61768881      -0.90968126       0.64152254        1 
H       3.17495215       1.75369340       0.64239678        1 
H       2.39200100       2.00459085       2.23641987        1 
C      -1.59120302      -2.46974281       1.13149149        6 
H      -2.58052363      -2.52334929       1.59214749        1 
H      -1.43941547      -3.37609563       0.53869637        1 
H      -0.83134842      -2.44084622       1.90737142        1 
C      -1.83859682       2.32742420       0.47024581        6 
H      -2.79634109       2.43015090       0.98495045        1 
H      -1.04036435       2.57262016       1.16989534        1 
H      -1.81547237       3.04130357      -0.35804139        1 
