35
Lattice="0.0 0.0 0.0 0.0 0.0 0.0 0.0 0.0 0.0" Properties=species:S:1:pos:R:3:Z:I:1 pbc="F F F"
C      -0.87201602       0.11538895      -0.88343218        6 
C       0.54056419      -0.53063218      -0.69973547        6 
C      -1.00342817       1.58738642      -0.51453328        6 
C       1.69439147       0.40692200      -0.38934278        6 
O      -0.92888524       1.81134744       0.80646710        8 
O      -1.19647229       2.45270400      -1.33497962        8 
O       2.85062100      -0.29096540      -0.32419887        8 
O       1.65448655       1.60838960      -0.30329004        8 
C       4.04296243       0.47962850      -0.08508884        6 
C      -0.91760116       3.19251629       1.20404828        6 
C      -1.75529401      -0.85844570      -0.03747343        6 
C      -1.79501793      -2.22635562      -0.78279222        6 
C      -0.41476520      -2.83201069      -0.42181800        6 
C       0.23252961      -1.66757238       0.36836937        6 
O      -0.89523514      -1.13673325       1.07861949        8 
H      -1.15975155       0.07978523      -1.93382196        1 
H       0.84204764      -1.01443375      -1.63144623        1 
H       3.98009458       0.98938876       0.87759644        1 
H      -1.82981379       3.69539430       0.87901089        1 
H      -2.61184975      -2.83617047      -0.39369404        1 
H      -1.95224931      -2.10429068      -1.85639841        1 
H      -0.52125968      -3.69760157       0.23502043        1 
H       0.17850261      -3.13531032      -1.28669391        1 
H       4.85735204      -0.24144437      -0.08330756        1 
H       4.18341492       1.21906310      -0.87460269        1 
H      -0.05090815       3.69241684       0.76921012        1 
H      -0.85066265       3.17996887       2.28981925        1 
C       1.30992467      -2.06748469       1.35146756        6 
H       0.90126990      -2.81186981       2.03858233        1 
H       2.17132787      -2.49225653       0.83545724        1 
H       1.64837184      -1.21009865       1.93588360        1 
C      -3.10794168      -0.35202601       0.41351927        6 
H      -3.61951076      -1.12686424       0.98893174        1 
H      -3.01031970       0.53581022       1.03683768        1 
H      -3.72510774      -0.10679881      -0.45550684        1 
