35
Lattice="0.0 0.0 0.0 0.0 0.0 0.0 0.0 0.0 0.0" Properties=species:S:1:pos:R:3:Z:I:1 pbc="F F F"
C      -0.89187183      -0.23369289      -0.64094349        6 
C       0.66981150      -0.16364440      -0.65450191        6 
C      -1.58635619       0.87842088       0.13860650        6 
C       1.30105429       1.14565570      -0.22102577        6 
O      -2.11045647       1.77846399      -0.72526705        8 
O      -1.71099614       0.95161772       1.33291261        8 
O       2.63777089       1.10190829      -0.42413885        8 
O       0.73445183       2.13111248       0.17923969        8 
C       3.36820485       2.29077030      -0.06876880        6 
C      -2.69535966       2.94521612      -0.12075479        6 
C      -1.11138742      -1.64310531      -0.00258786        6 
C      -0.59588077      -2.71006678      -1.01559551        6 
C       0.93850480      -2.64845812      -0.80233032        6 
C       1.05766038      -1.45888648       0.18033588        6 
O      -0.09295677      -1.65567400       1.01099161        8 
H      -1.27470154      -0.19203820      -1.66044357        1 
H       1.02855352      -0.30347139      -1.67651033        1 
H       3.25707086       2.50131754       0.99603436        1 
H      -1.93952534       3.47825790       0.45782115        1 
H      -0.99626421      -3.69150240      -0.75640740        1 
H      -0.90491797      -2.48741093      -2.03938159        1 
H       1.30555906      -3.55396540      -0.31511247        1 
H       1.51017915      -2.50078807      -1.72107311        1 
H       4.40669361       2.07557480      -0.31046889        1 
H       3.00789698       3.14544091      -0.64306060        1 
H      -3.52343289       2.66632163       0.53293081        1 
H      -3.04977773       3.55570317      -0.94873721        1 
C       2.30732134      -1.42727400       1.02974213        6 
H       2.38282791      -2.36594102       1.58320994        1 
H       3.19589838      -1.30781981       0.40920643        1 
H       2.27382154      -0.60687080       1.74928562        1 
C      -2.47552047      -1.94081567       0.58114538        6 
H      -2.48916746      -2.95670254       0.98219832        1 
H      -2.72113939      -1.24423578       1.38078752        1 
H      -3.24006484      -1.87150315      -0.19857136        1 
