35
Lattice="0.0 0.0 0.0 0.0 0.0 0.0 0.0 0.0 0.0" Properties=species:S:1:pos:R:3:Z:I:1 pbc="F F F"
C      -0.28018587       0.91712505       0.49365238        6 
C       0.39957084      -0.47422844       0.75159632        6 
C      -1.74754446       0.89064253       0.10192355        6 
C      -0.25596037      -1.59607699      -0.06227925        6 
O      -2.47523202       0.49292186       1.17182352        8 
O      -2.23967713       1.28700613      -0.92336978        8 
O       0.59307563      -2.57954175      -0.40157928        8 
O      -1.44149924      -1.67061419      -0.28006592        8 
C       0.01706707      -3.70160956      -1.09912056        6 
C      -3.87562209       0.28100081       0.92946387        6 
C       0.78231019       1.64948010      -0.40811279        6 
C       1.75362914       2.30872166       0.59548288        6 
C       2.34349276       1.05562393       1.28653439        6 
C       1.86719098      -0.10404722       0.34531973        6 
O       1.60592234       0.56871496      -0.90176392        8 
H      -0.30719465       1.42727958       1.45951574        1 
H       0.31206120      -0.77245071       1.79956253        1 
H      -0.44773214      -3.37194785      -2.02877551        1 
H      -4.00343298      -0.50826032       0.18701750        1 
H       2.52128924       2.85844319       0.04702678        1 
H       1.25527638       3.00035580       1.27831652        1 
H       3.43239378       1.08736459       1.32650889        1 
H       1.98265686       0.91892032       2.30886860        1 
H       0.85058934      -4.37064000      -1.30159869        1 
H      -0.73104396      -4.19405820      -0.47648027        1 
H      -4.35071811       1.19756814       0.57678138        1 
H      -4.29429546      -0.02369232       1.88650618        1 
C       2.92542780      -1.17532434       0.16653781        6 
H       3.88821565      -0.69173295      -0.01400220        1 
H       3.01088405      -1.78413157       1.07054110        1 
H       2.70045987      -1.83064549      -0.66862554        1 
C       0.32247461       2.52363979      -1.55134515        6 
H       1.20034602       2.94330184      -2.04914908        1 
H      -0.26826220       1.95883915      -2.26921936        1 
H      -0.29556686       3.34486101      -1.18214559        1 
