35
Lattice="0.0 0.0 0.0 0.0 0.0 0.0 0.0 0.0 0.0" Properties=species:S:1:pos:R:3:Z:I:1 pbc="F F F"
C      -0.02505486       0.86393688       0.57069308        6 
C       0.46446387      -0.59346650       0.91334867        6 
C      -1.45393806       0.97017125       0.07903399        6 
C      -0.47588442      -1.69853183       0.45526846        6 
O      -2.21391382       1.60389048       1.00403132        8 
O      -1.89807483       0.56774306      -0.96762945        8 
O      -0.44998332      -1.90687383      -0.86411640        8 
O      -1.15848796      -2.33630480       1.22612280        8 
C      -1.40445916      -2.84546499      -1.38782375        6 
C      -3.61242985       1.73435948       0.68604919        6 
C       1.09298321       1.34751767      -0.43281570        6 
C       2.28345572       1.79061947       0.45293787        6 
C       2.76347485       0.42568722       1.01249063        6 
C       1.86981907      -0.58108000       0.22614995        6 
O       1.59651535       0.12645567      -0.99223751        8 
H       0.02145033       1.46481099       1.47710344        1 
H       0.54360459      -0.71846584       1.99225757        1 
H      -2.41698669      -2.47605933      -1.21970248        1 
H      -4.06660963       0.74950188       0.56667581        1 
H       3.04728865       2.25015682      -0.17729493        1 
H       1.99901924       2.50874680       1.22478070        1 
H       3.81573893       0.24555443       0.78723807        1 
H       2.63470898       0.32956245       2.09291408        1 
H      -1.19509920      -2.90137610      -2.45351003        1 
H      -1.28761551      -3.82218478      -0.91587341        1 
H      -3.74355020       2.30460051      -0.23485684        1 
H      -4.05343728       2.25948288       1.53028225        1 
C       2.51577613      -1.92340534      -0.04153609        6 
H       3.48509788      -1.77759923      -0.52350261        1 
H       2.67806632      -2.45504988       0.90030352        1 
H       1.89433180      -2.53818211      -0.69125265        1 
C       0.67844161       2.31014505      -1.52218290        6 
H       1.54444171       2.56152268      -2.13821799        1 
H      -0.08994618       1.86769580      -2.15528093        1 
H       0.28787552       3.23409789      -1.08580540        1 
