35
Lattice="0.0 0.0 0.0 0.0 0.0 0.0 0.0 0.0 0.0" Properties=species:S:1:pos:R:3:Z:I:1 pbc="F F F"
C      -0.46589358       0.67604346      -0.74790155        6 
C      -0.10528405      -0.84658515      -0.58507730        6 
C       0.51607789       1.77502445      -0.37411703        6 
C       1.22080558      -1.17639834       0.08512004        6 
O       1.66316837       1.34259008       0.16483274        8 
O       0.27051434       2.94568505      -0.55136785        8 
O       2.16559106      -1.37519797      -0.86737849        8 
O       1.43417493      -1.31046782       1.26188781        8 
C       3.48896762      -1.65383218      -0.38470298        6 
C       2.60849052       2.34967782       0.56933449        6 
C      -1.83030335       0.75519046       0.06859152        6 
C      -2.92290975       0.14641111      -0.84435821        6 
C      -2.55674419      -1.35726686      -0.80578332        6 
C      -1.35888523      -1.37557520       0.18847922        6 
O      -1.65665164      -0.27008166       1.05648150        8 
H      -0.68456930       0.88284009      -1.79691602        1 
H      -0.05017418      -1.29737303      -1.57648787        1 
H       3.49186793      -2.55314317       0.23311268        1 
H       2.14369250       3.04721507       1.26641192        1 
H      -3.90436132       0.32595028      -0.40148719        1 
H      -2.92212123       0.57936600      -1.84632804        1 
H      -3.37531721      -1.95799238      -0.40578295        1 
H      -2.29040138      -1.76861987      -1.78167142        1 
H       4.10070608      -1.79669021      -1.27306466        1 
H       3.86094208      -0.81415086       0.20504353        1 
H       2.97411180       2.89652374      -0.30106023        1 
H       3.41668147       1.80588080       1.05299033        1 
C      -1.22466122      -2.66719633       0.96647965        6 
H      -2.18368304      -2.91271880       1.42793963        1 
H      -0.95284982      -3.48503068       0.29191910        1 
H      -0.46737201      -2.58495570       1.74275920        1 
C      -2.20294653       2.06100240       0.73211274        6 
H      -3.14570348       1.92694230       1.26745270        1 
H      -1.44224000       2.37812023       1.44613427        1 
H      -2.32082224       2.85210417      -0.00908487        1 
