35
Lattice="0.0 0.0 0.0 0.0 0.0 0.0 0.0 0.0 0.0" Properties=species:S:1:pos:R:3:Z:I:1 pbc="F F F"
C      -0.47402300       0.61713402       0.76123947        6 
C       0.86584137      -0.21048742       0.76790566        6 
C      -1.68246948      -0.13855495       0.20730648        6 
C       0.70800744      -1.72248707       0.70118926        6 
O      -2.63731560       0.68716715      -0.25856235        8 
O      -1.85194179      -1.32914544       0.29953059        8 
O       0.72690283      -2.21788240      -0.54777193        8 
O       0.56135708      -2.39983183       1.68942340        8 
C       0.40299134      -3.61500678      -0.66707118        6 
C      -3.86381962       0.06112270      -0.68284560        6 
C       0.00913078       1.88147624      -0.03770458        6 
C       1.09822719       2.58080082       0.84043591        6 
C       2.36187788       1.75125478       0.51752040        6 
C       1.74950532       0.57171292      -0.27324994        6 
O       0.77658527       1.25706662      -1.08412714        8 
H      -0.76324239       0.88355117       1.78162056        1 
H       1.31208092      -0.07884776       1.75485356        1 
H      -0.60530140      -3.78847122      -0.28946792        1 
H      -4.33387275      -0.46019449       0.15230391        1 
H       1.21192683       3.62348540       0.54163527        1 
H       0.83271133       2.57004532       1.89980226        1 
H       3.03837044       2.30460942      -0.13655975        1 
H       2.92209619       1.43133819       1.39830094        1 
H       0.46217763      -3.83623447      -1.73073608        1 
H       1.11332695      -4.22429674      -0.10638498        1 
H      -3.67013382      -0.64957596      -1.48708427        1 
H      -4.49445518       0.87532864      -1.03308717        1 
C       2.73157240      -0.19058517      -1.13559619        6 
H       3.31200527       0.51645314      -1.73306714        1 
H       3.42450842      -0.76020049      -0.51004089        1 
H       2.21832295      -0.88377614      -1.79778302        1 
C      -0.97956610       2.86057983      -0.64053937        6 
H      -0.42085779       3.69794993      -1.06506246        1 
H      -1.57168697       2.40008082      -1.42657717        1 
H      -1.66062391       3.24755795       0.12068464        1 
