35
Lattice="0.0 0.0 0.0 0.0 0.0 0.0 0.0 0.0 0.0" Properties=species:S:1:pos:R:3:Z:I:1 pbc="F F F"
C      -0.75501308       0.14114721      -0.82361985        6 
C       0.71188917      -0.28930801      -0.58203776        6 
C      -1.15574266       1.30374105       0.09976372        6 
C       1.77676105       0.79038859      -0.64611065        6 
O      -2.49926743       1.43932093       0.17073155        8 
O      -0.40876890       2.12043574       0.57181648        8 
O       2.93539207       0.38003640      -0.08252688        8 
O       1.65903705       1.84082823      -1.22149732        8 
C       4.03957647       1.29819476      -0.18558911        6 
C      -2.97715160       2.57219944       0.91855245        6 
C      -1.43993865      -1.19474109      -0.32419016        6 
C      -0.83125379      -2.43272842      -1.07110205        6 
C       0.46332328      -2.71673768      -0.26076171        6 
C       0.57048624      -1.40248831       0.53736816        6 
O      -0.80183247      -1.26189319       0.97207671        8 
H      -0.97050684       0.41634344      -1.85688646        1 
H       0.99739523      -0.83488339      -1.49104344        1 
H       3.78600999       2.25052854       0.28169978        1 
H      -2.60643516       3.50101946       0.48268237        1 
H      -1.52568899      -3.27171008      -1.03258739        1 
H      -0.64131287      -2.21818237      -2.12571754        1 
H       0.32581725      -3.55382156       0.42704004        1 
H       1.34052420      -2.91367575      -0.88143258        1 
H       4.86428725       0.81943061       0.33815736        1 
H       4.29721653       1.47011608      -1.23212365        1 
H      -2.65058953       2.50885185       1.95764908        1 
H      -4.06227996       2.52266582       0.85467665        1 
C       1.48783117      -1.38409444       1.73508457        6 
H       1.16532344      -2.15414721       2.44041065        1 
H       2.51702329      -1.57978528       1.43660287        1 
H       1.45440674      -0.41476822       2.23519069        1 
C      -2.94766820      -1.29661249      -0.19661658        6 
H      -3.20754833      -2.31000409       0.11821968        1 
H      -3.34796658      -0.59079848       0.52359546        1 
H      -3.42064755      -1.10486985      -1.16348434        1 
