35
Lattice="0.0 0.0 0.0 0.0 0.0 0.0 0.0 0.0 0.0" Properties=species:S:1:pos:R:3:Z:I:1 pbc="F F F"
C       0.04723301       0.63917741       0.66073313        6 
C       0.46499354      -0.87113478       0.65056368        6 
C      -1.29053475       0.99007072       0.05159853        6 
C      -0.52565199      -1.78391893      -0.06025601        6 
O      -1.81330195       2.06725489       0.68524181        8 
O      -1.82954408       0.45411528      -0.88367821        8 
O      -1.58105339      -2.00809384       0.76130009        8 
O      -0.43173546      -2.26083023      -1.15918600        8 
C      -2.68185479      -2.72476129       0.17248091        6 
C      -3.05272715       2.56794173       0.15134910        6 
C       1.24930851       1.29989733      -0.13482810        6 
C       2.42304789       1.41059781       0.86683167        6 
C       2.81926888      -0.07907234       1.02830017        6 
C       1.88156011      -0.78567734       0.00160033        6 
O       1.68180723       0.23938476      -0.99091349        8 
H       0.03287127       1.02345541       1.67947399        1 
H       0.52499650      -1.23194622       1.67894727        1 
H      -2.37193764      -3.72797574      -0.12421131        1 
H      -3.82629781       1.80010179       0.19953012        1 
H       3.23147764       1.98997982       0.41570690        1 
H       2.13733524       1.89944998       1.80001230        1 
H       3.86122649      -0.24640233       0.75200495        1 
H       2.67877805      -0.45811872       2.04284044        1 
H      -3.44455316      -2.77390137       0.94704939        1 
H      -3.04957954      -2.18463619      -0.70100818        1 
H      -2.92251694       2.88041166      -0.88603733        1 
H      -3.31607235       3.41741890       0.77762965        1 
C       2.46868294      -2.03808277      -0.61376370        6 
H       3.47170901      -1.82250080      -0.98905808        1 
H       2.54923840      -2.82498523       0.14234696        1 
H       1.84748297      -2.39992836      -1.42887120        1 
C       0.93826848       2.54311504      -0.93751017        6 
H       1.83788834       2.87556013      -1.45950875        1 
H       0.16556209       2.34135812      -1.68214374        1 
H       0.59690767       3.34850264      -0.28295137        1 
