35
Lattice="0.0 0.0 0.0 0.0 0.0 0.0 0.0 0.0 0.0" Properties=species:S:1:pos:R:3:Z:I:1 pbc="F F F"
C       0.10043775       0.84562270       0.62141356        6 
C       0.48989374      -0.66725444       0.74706792        6 
C      -1.18158950       1.16306072      -0.13406307        6 
C      -0.50385703      -1.78243587       0.48220581        6 
O      -2.16448859       1.46962669       0.75000798        8 
O      -1.34042033       1.18588747      -1.32610923        8 
O      -1.63951361      -1.39809138      -0.11571160        8 
O      -0.27564286      -2.92873094       0.79447481        8 
C      -2.59464046      -2.43284910      -0.41382622        6 
C      -3.45403232       1.73867830       0.17635895        6 
C       1.36784570       1.40047072      -0.10855644        6 
C       2.57647267       1.27083354       0.86854991        6 
C       2.95562453      -0.22532050       0.72422757        6 
C       1.79720974      -0.73934874      -0.16014086        6 
O       1.61844956       0.35762453      -1.06499939        8 
H      -0.00710181       1.27842237       1.61595432        1 
H       0.79468688      -0.85957435       1.77674932        1 
H      -2.97583664      -2.87444324       0.50819500        1 
H      -3.80499741       0.87330686      -0.38841682        1 
H       3.38752102       1.92560697       0.54590577        1 
H       2.30954039       1.55400253       1.88927708        1 
H       3.89829265      -0.34424260       0.18620070        1 
H       3.03517770      -0.75679871       1.67446978        1 
H      -3.39152634      -1.93753529      -0.96384364        1 
H      -2.13375527      -3.21072770      -1.02317670        1 
H      -3.40758786       2.60276999      -0.48851544        1 
H      -4.11305266       1.93906324       1.01860020        1 
C       2.05513603      -2.01642928      -0.92413805        6 
H       2.96838456      -1.90544621      -1.51275973        1 
H       2.16825017      -2.85951850      -0.24153282        1 
H       1.23061765      -2.23468474      -1.60550922        1 
C       1.25223545       2.75066866      -0.78276890        6 
H       2.20722719       3.01105567      -1.24432896        1 
H       0.48235209       2.74388306      -1.55238812        1 
H       1.01099756       3.51918706      -0.04219463        1 
