35
Lattice="0.0 0.0 0.0 0.0 0.0 0.0 0.0 0.0 0.0" Properties=species:S:1:pos:R:3:Z:I:1 pbc="F F F"
C       0.10168769       0.73650382       0.75112493        6 
C       0.63097854      -0.73956070       0.79180907        6 
C      -1.41154150       0.86856664       0.83365001        6 
C      -0.21693008      -1.82550596       0.13993690        6 
O      -2.00199904       1.40908745      -0.24336233        8 
O      -2.01510595       0.56137693       1.83530098        8 
O      -1.38500524      -1.37939874      -0.34815253        8 
O       0.15656894      -2.96619937       0.00499826        8 
C      -2.21117143      -2.34096603      -1.02777910        6 
C      -3.43333946       1.52826295      -0.17898938        6 
C       0.99209212       1.38419561      -0.37947378        6 
C       2.28516873       1.82148388       0.34827978        6 
C       2.86775424       0.44918598       0.76480080        6 
C       1.96432348      -0.55038455      -0.02509924        6 
O       1.47165069       0.24391501      -1.12148835        8 
H       0.40092547       1.18552889       1.70113522        1 
H       0.82749920      -1.07121953       1.81242634        1 
H      -2.53576830      -3.11895137      -0.33511535        1 
H      -3.72910665       2.17992005       0.64451297        1 
H       2.94249312       2.33022683      -0.35967592        1 
H       2.09305041       2.49589337       1.18541704        1 
H       3.90860237       0.34037146       0.45840077        1 
H       2.82007154       0.26908994       1.84129879        1 
H      -3.06435481      -1.77665425      -1.39773158        1 
H      -1.66382427      -2.79581228      -1.85404495        1 
H      -3.88843178       0.54668865      -0.03714014        1 
H      -3.73076518       1.95720036      -1.13367393        1 
C       2.70656503      -1.76659306      -0.53562905        6 
H       3.60832194      -1.43358655      -1.05463018        1 
H       2.99743650      -2.41167768       0.29594081        1 
H       2.10233531      -2.35674788      -1.22084478        1 
C       0.41068648       2.41361415      -1.32221905        6 
H       1.20159930       2.77761762      -1.98268938        1 
H      -0.39018740       1.98948684      -1.92290781        1 
H       0.00697674       3.26067486      -0.76335073        1 
