35
Lattice="0.0 0.0 0.0 0.0 0.0 0.0 0.0 0.0 0.0" Properties=species:S:1:pos:R:3:Z:I:1 pbc="F F F"
C      -0.37068360       0.61230780       0.65416215        6 
C       0.80911935      -0.35146396       0.92077074        6 
C      -1.75030382      -0.01403417       0.69975797        6 
C       0.73687189      -1.71967094       0.25753810        6 
O      -2.69486857       0.82604232       0.22517334        8 
O      -2.00890284      -1.08436338       1.19148270        8 
O      -0.16659107      -1.78530749      -0.73264992        8 
O       1.52381902      -2.60641379       0.49638888        8 
C      -0.22156692      -3.01943356      -1.46586774        6 
C      -4.05451881       0.35905010       0.30808283        6 
C       0.16667268       1.50621904      -0.54008820        6 
C       0.92236726       2.66123147       0.15291248        6 
C       2.06651841       1.87339042       0.84923455        6 
C       1.94890162       0.46116447       0.19098342        6 
O       1.27959625       0.74448081      -1.05056215        8 
H      -0.43346385       1.27824342       1.52394420        1 
H       1.01660891      -0.50475161       1.97895559        1 
H      -0.48185135      -3.84433931      -0.80092028        1 
H      -4.33396628       0.17743445       1.34700466        1 
H       1.31789529       3.34367134      -0.60203530        1 
H       0.29505417       3.23136614       0.84175045        1 
H       3.04465736       2.30467644       0.63445684        1 
H       1.95759322       1.82541871       1.93540398        1 
H      -0.99574535      -2.87543080      -2.21647596        1 
H       0.73903577      -3.22583247      -1.94039790        1 
H      -4.17528582      -0.56357298      -0.26147728        1 
H      -4.66059381       1.15520611      -0.11892988        1 
C       3.27505871      -0.22363315      -0.05130066        6 
H       3.93694653       0.45799319      -0.59051505        1 
H       3.74351057      -0.48698931       0.89996885        1 
H       3.16372283      -1.13754337      -0.63281241        1 
C      -0.76032812       1.87323837      -1.67362185        6 
H      -0.19170919       2.40991889      -2.43666703        1 
H      -1.19090389       0.97772074      -2.12427591        1 
H      -1.57424419       2.50668163      -1.32163554        1 
