35
Lattice="0.0 0.0 0.0 0.0 0.0 0.0 0.0 0.0 0.0" Properties=species:S:1:pos:R:3:Z:I:1 pbc="F F F"
C       0.46974966       0.85878637       0.59999827        6 
C       0.04077213      -0.63379768       0.69050313        6 
C      -0.61135383       1.85655819       0.22254221        6 
C      -1.14644966      -0.98655589      -0.18154409        6 
O      -1.79460569       1.48486422       0.76422146        8 
O      -0.44468503       2.91721858      -0.32373826        8 
O      -1.86048987      -1.99001421       0.37952989        8 
O      -1.41778957      -0.49704328      -1.24880684        8 
C      -2.98288093      -2.46372859      -0.38646520        6 
C      -2.91258036       2.35114948       0.50324360        6 
C       1.79772056       0.78067001      -0.24247535        6 
C       2.90516942       0.38033975       0.76622120        6 
C       2.49582515      -1.07688321       1.11035841        6 
C       1.32791820      -1.32676842       0.11189934        6 
O       1.64252329      -0.45014806      -0.97604321        8 
H       0.72889854       1.19030083       1.61203500        1 
H      -0.16632528      -0.95592881       1.70938482        1 
H      -2.64781350      -2.88302361      -1.33679300        1 
H      -3.11779306       2.38242941      -0.56786520        1 
H       3.87342484       0.40653877       0.26316601        1 
H       2.95115276       1.04453354       1.63140443        1 
H       3.30885235      -1.77838635       0.91663996        1 
H       2.18229318      -1.21003019       2.14819719        1 
H      -3.45043702      -3.23135530       0.22638235        1 
H      -3.68090333      -1.64850628      -0.58214662        1 
H      -2.71059170       3.36047650       0.86427551        1 
H      -3.75118045       1.91191347       1.03954773        1 
C       1.17764108      -2.75349191      -0.36949871        6 
H       2.13274439      -3.11442939      -0.75721259        1 
H       0.86573227      -3.40294610       0.45184392        1 
H       0.43821789      -2.82470356      -1.16950725        1 
C       2.14728489       1.90672690      -1.18709996        6 
H       3.09623560       1.67479551      -1.67702906        1 
H       1.37669167       2.03439523      -1.94582171        1 
H       2.24552441       2.84960310      -0.64739664        1 
