35
Lattice="0.0 0.0 0.0 0.0 0.0 0.0 0.0 0.0 0.0" Properties=species:S:1:pos:R:3:Z:I:1 pbc="F F F"
C      -0.55988811       0.49567688       0.62097249        6 
C       0.81158592      -0.14791949       0.94201915        6 
C      -1.77159397      -0.40647116       0.49555625        6 
C       1.12658008      -1.53997012       0.41828878        6 
O      -2.89354622       0.35747869       0.54222065        8 
O      -1.80755915      -1.60562527       0.39555054        8 
O       0.62787778      -1.78263751      -0.79768552        8 
O       1.89464188      -2.28310093       0.98846009        8 
C       0.92242950      -3.06933582      -1.36268374        6 
C      -4.14201102      -0.34589993       0.41080610        6 
C      -0.21182660       1.50431635      -0.55752037        6 
C       0.25919630       2.79587531       0.14616175        6 
C       1.55426228       2.28722074       0.83750519        6 
C       1.74387563       0.87973609       0.18724949        6 
O       1.03796336       1.00767069      -1.05670831        8 
H      -0.82771152       1.11675255       1.47984622        1 
H       1.01850102      -0.16880962       2.01103535        1 
H       0.49121555      -3.85883208      -0.74502540        1 
H      -4.25383872      -1.08006217       1.20999218        1 
H       0.48398164       3.55314275      -0.60799341        1 
H      -0.48059249       3.20551719       0.83703488        1 
H       2.41125124       2.92487854       0.61621401        1 
H       1.46410681       2.22084289       1.92417554        1 
H       0.46215040      -3.06346701      -2.34823016        1 
H       2.00054035      -3.21851491      -1.44145240        1 
H      -4.19343823      -0.85543226      -0.55288674        1 
H      -4.91392130       0.41747108       0.48113992        1 
C       3.17907780       0.46429277      -0.04427089        6 
H       3.70642096       1.25143361      -0.58743973        1 
H       3.68336481       0.29473224       0.90958757        1 
H       3.23759716      -0.45567944      -0.62692113        1 
C      -1.20972095       1.65158744      -1.68071230        6 
H      -0.80079530       2.31430957      -2.44689237        1 
H      -1.42032690       0.68270815      -2.13929164        1 
H      -2.14535676       2.07312227      -1.31103755        1 
