35
Lattice="0.0 0.0 0.0 0.0 0.0 0.0 0.0 0.0 0.0" Properties=species:S:1:pos:R:3:Z:I:1 pbc="F F F"
C      -0.37091692       0.62841502      -0.84645064        6 
C      -0.07163475      -0.86565824      -0.52383209        6 
C       0.45033283       1.66093518      -0.07968662        6 
C       1.37693254      -1.23400128      -0.26835213        6 
O       1.33214136       1.11336836       0.77580689        8 
O       0.25071886       2.85089946      -0.13792685        8 
O       2.15407141      -0.65779381      -1.21830487        8 
O       1.79910657      -2.02968469       0.53115861        8 
C       3.56087016      -0.93518182      -1.13308803        6 
C       2.04773511       2.02128779       1.63073460        6 
C      -1.85632771       0.69194944      -0.31428567        6 
C      -2.71200846      -0.34368473      -1.11422785        6 
C      -2.40074408      -1.67159087      -0.37607480        6 
C      -1.20628501      -1.23870652       0.50207349        6 
O      -1.67434768       0.04913441       0.96136711        8 
H      -0.29824332       0.86246846      -1.90872706        1 
H      -0.26935638      -1.42440332      -1.44595816        1 
H       3.74833096      -2.00834032      -1.19199205        1 
H       1.34823764       2.60862476       2.22641103        1 
H      -3.76925248      -0.08348781      -1.05561978        1 
H      -2.43737764      -0.36260673      -2.17191657        1 
H      -3.23146797      -1.97112459       0.26619374        1 
H      -2.16280885      -2.50337920      -1.04290377        1 
H       4.01132459      -0.42004321      -1.97892274        1 
H       3.96448021      -0.55186330      -0.19394767        1 
H       2.66891739       2.69291027       1.03581340        1 
H       2.66265714       1.39057578       2.26892884        1 
C      -0.88847508      -2.12718206       1.68073172        6 
H      -1.79276442      -2.25276442       2.28191960        1 
H      -0.54559384      -3.10661147       1.34498472        1 
H      -0.10441587      -1.69374595       2.29970249        1 
C      -2.53043389       2.03716421      -0.15619615        6 
H      -3.54143146       1.88177705       0.22769964        1 
H      -1.99012433       2.69041042       0.52460617        1 
H      -2.59759948       2.54070197      -1.12342962        1 
