35
Lattice="0.0 0.0 0.0 0.0 0.0 0.0 0.0 0.0 0.0" Properties=species:S:1:pos:R:3:Z:I:1 pbc="F F F"
C      -0.07038945       0.87622606       0.60721522        6 
C       0.54009075      -0.55136850       0.87928458        6 
C      -1.45451681       0.85047012      -0.00612134        6 
C      -0.46902786      -1.64317464       0.54495751        6 
O      -2.32963116       1.53732222       0.75530091        8 
O      -1.75311749       0.32351075      -1.05085010        8 
O      -0.17233418      -2.38581843      -0.52490029        8 
O      -1.47971167      -1.78225134       1.19664422        8 
C      -1.19018368      -3.31014889      -0.95756797        6 
C      -3.69318814       1.54617736       0.29045970        6 
C       1.01801025       1.49591032      -0.34799512        6 
C       2.19968167       1.91919658       0.55759279        6 
C       2.78746009       0.54216120       0.95278292        6 
C       1.90407434      -0.44468485       0.12711361        6 
O       1.55152750       0.34671592      -1.02217867        8 
H      -0.13417241       1.44587966       1.53183293        1 
H       0.70468445      -0.66529656       1.95271091        1 
H      -2.08636608      -2.75873374      -1.24342138        1 
H      -4.07736384       0.52647736       0.24103806        1 
H       2.91376274       2.50351379      -0.02628778        1 
H       1.88100867       2.52589913       1.40755237        1 
H       3.82941660       0.45033680       0.64255843        1 
H       2.74007139       0.33883248       2.02463816        1 
H      -0.76436218      -3.82239238      -1.81749551        1 
H      -1.42994935      -4.01794280      -0.16338351        1 
H      -3.75881139       2.00692556      -0.69637365        1 
H      -4.24499856       2.12911404       1.02441972        1 
C       2.63018154      -1.71091961      -0.27699256        6 
H       3.58939770      -1.44836221      -0.72878013        1 
H       2.82797253      -2.33040273       0.60315477        1 
H       2.04949442      -2.29314331      -0.98651671        1 
C       0.54864576       2.53592097      -1.34090873        6 
H       1.39340762       2.87258863      -1.94540784        1 
H      -0.21282672       2.12480582      -2.00339198        1 
H       0.13503643       3.40183873      -0.81589724        1 
