35
Lattice="0.0 0.0 0.0 0.0 0.0 0.0 0.0 0.0 0.0" Properties=species:S:1:pos:R:3:Z:I:1 pbc="F F F"
C      -0.78858726       0.05872001      -0.83989357        6 
C       0.68774692      -0.41040974      -0.66498633        6 
C      -1.05519151       1.31497217       0.01021311        6 
C       1.73369969       0.68828312      -0.78707975        6 
O      -2.33856798       1.42348973       0.40172475        8 
O      -0.25773600       2.20117716       0.19143989        8 
O       2.68798596       0.65014170       0.15861297        8 
O       1.71859201       1.48907865      -1.68842176        8 
C       3.68495929       1.68733670       0.07938003        6 
C      -2.68072502       2.62212260       1.12192704        6 
C      -1.49103385      -1.22034412      -0.25200712        6 
C      -0.99077913      -2.49065574      -1.02376840        6 
C       0.34429198      -2.81776031      -0.30714278        6 
C       0.56493600      -1.50359848       0.47136397        6 
O      -0.76732863      -1.29443990       0.99773657        8 
H      -1.03957467       0.28876750      -1.87666850        1 
H       0.92068899      -0.96075505      -1.58358583        1 
H       3.20941667       2.66652516       0.14359878        1 
H      -2.48897573       3.50409402       0.50942822        1 
H      -1.71282939      -3.30057208      -0.92445299        1 
H      -0.86920161      -2.29321563      -2.09182335        1 
H       0.22412674      -3.64271160       0.39831552        1 
H       1.16655223      -3.05672839      -0.98554712        1 
H       4.34292586       1.51917268       0.92928552        1 
H       4.23938040       1.61500521      -0.85751998        1 
H      -2.10096430       2.69004905       2.04338370        1 
H      -3.74200157       2.52998357       1.34355041        1 
C       1.55975762      -1.54654787       1.60577456        6 
H       1.27489149      -2.34521169       2.29532379        1 
H       2.56506218      -1.74341557       1.23166882        1 
H       1.57931757      -0.60037126       2.14539906        1 
C      -2.99129024      -1.25757037      -0.02814238        6 
H      -3.27150063      -2.25396170       0.32161351        1 
H      -3.31758896      -0.52293876       0.69964046        1 
H      -3.51350414      -1.06717251      -0.96994472        1 
