35
Lattice="0.0 0.0 0.0 0.0 0.0 0.0 0.0 0.0 0.0" Properties=species:S:1:pos:R:3:Z:I:1 pbc="F F F"
C      -0.76701514      -0.47084952      -0.61338933        6 
C       0.72207575       0.01090768      -0.69979752        6 
C      -1.68663103       0.46785544       0.15218667        6 
C       0.92079731       1.48085406      -0.35465728        6 
O      -2.63645477       0.96559963      -0.66811004        8 
O      -1.64987734       0.68360591       1.33772771        8 
O       2.18666123       1.77167408      -0.00938403        8 
O       0.07097521       2.32684068      -0.49875056        8 
C       2.47122683       3.16327881       0.23490739        6 
C      -3.53088761       1.92169725      -0.07306760        6 
C      -0.59644510      -1.85380970       0.09285048        6 
C       0.08285018      -2.81508006      -0.92314828        6 
C       1.55727262      -2.33962338      -0.87844517        6 
C       1.46915386      -1.13397686       0.09797135        6 
O       0.46392196      -1.58108292       1.02064868        8 
H      -1.18995602      -0.59023458      -1.60992671        1 
H       1.04640133      -0.03112399      -1.74460526        1 
H       1.84177132       3.54209158       1.04072045        1 
H      -2.96502800       2.78142682       0.28865072        1 
H      -0.01355178      -3.84495730      -0.57486598        1 
H      -0.36918098      -2.75583834      -1.91545403        1 
H       2.20523019      -3.10636220      -0.44989035        1 
H       1.96347982      -2.06534128      -1.85419067        1 
H       3.52097798       3.19588778       0.51780111        1 
H       2.29568254       3.75156108      -0.66704202        1 
H      -4.07865359       1.47231960       0.75693395        1 
H      -4.21238716       2.21678549      -0.86811911        1 
C       2.74791532      -0.83799124       0.85031645        6 
H       3.08535702      -1.75724846       1.33484367        1 
H       3.52957964      -0.48847257       0.17420882        1 
H       2.58969087      -0.07760242       1.61299050        1 
C      -1.80868490      -2.42151710       0.79921575        6 
H      -1.55923046      -3.38940980       1.23921424        1 
H      -2.14486682      -1.75384349       1.59174377        1 
H      -2.62594666      -2.56766166       0.08703532        1 
