35
Lattice="0.0 0.0 0.0 0.0 0.0 0.0 0.0 0.0 0.0" Properties=species:S:1:pos:R:3:Z:I:1 pbc="F F F"
C      -0.81102837       0.17229422      -0.93346321        6 
C       0.53621283      -0.55459474      -0.63070791        6 
C      -0.91629727       1.63248456      -0.51116659        6 
C       1.74986574       0.28687394      -0.29605155        6 
O      -0.91721711       1.80985798       0.81373823        8 
O      -1.06589904       2.52847320      -1.31135117        8 
O       2.86421748      -0.35655339      -0.72519480        8 
O       1.79050314       1.34166343       0.28508700        8 
C       4.11772548       0.28561891      -0.42845278        6 
C      -0.89086953       3.17201791       1.26955724        6 
C      -1.79978794      -0.77182724      -0.16753347        6 
C      -1.77156246      -2.16652721      -0.86858425        6 
C      -0.48522905      -2.80443902      -0.27815280        6 
C       0.10846672      -1.59966444       0.48737525        6 
O      -1.07325535      -1.01693726       1.04695927        8 
H      -1.01017774       0.17371286      -2.00428153        1 
H       0.82882457      -1.11767960      -1.51657567        1 
H       4.24252537       0.40093938       0.64942167        1 
H      -1.74424055       3.72892108       0.87960291        1 
H      -2.66231553      -2.73860874      -0.60451440        1 
H      -1.74609870      -2.07492063      -1.95668661        1 
H      -0.72758301      -3.59709069       0.43293558        1 
H       0.19401550      -3.21223652      -1.02894660        1 
H       4.88287305      -0.37190885      -0.83527117        1 
H       4.16388003       1.26745993      -0.90190594        1 
H       0.03624642       3.64750587       0.94659780        1 
H      -0.93067746       3.11276156       2.35494340        1 
C       1.11838825      -1.90702085       1.56816098        6 
H       0.67581319      -2.58160441       2.30430327        1 
H       2.00217643      -2.38784977       1.14274285        1 
H       1.42702542      -0.99358757       2.08140325        1 
C      -3.18617104      -0.23458605       0.11139701        6 
H      -3.76825426      -0.97805337       0.66055052        1 
H      -3.14432665       0.67870724       0.70434299        1 
H      -3.70035838      -0.02110620      -0.82954862        1 
