35
Lattice="0.0 0.0 0.0 0.0 0.0 0.0 0.0 0.0 0.0" Properties=species:S:1:pos:R:3:Z:I:1 pbc="F F F"
C      -0.39250727       0.53707641      -0.80918989        6 
C      -0.21666595      -1.02115104      -0.61963079        6 
C       0.86972399       1.38277465      -0.79771433        6 
C       1.02288693      -1.50354563       0.13929960        6 
O       1.15018071       1.92413875       0.40281354        8 
O       1.57824010       1.51422224      -1.76563016        8 
O       2.12158111      -0.82135340      -0.23042111        8 
O       1.06917521      -2.43487091       0.90369932        8 
C       3.36488804      -1.23559484       0.36166385        6 
C       2.37732970       2.66915674       0.48376326        6 
C      -1.62118351       0.84405380       0.13418326        6 
C      -2.86880550       0.53084749      -0.72504981        6 
C      -2.72383547      -0.99828098      -0.90505294        6 
C      -1.57134843      -1.34607164       0.09528375        6 
O      -1.62799243      -0.26697208       1.04807221        8 
H      -0.72916207       0.67272535      -1.83880076        1 
H      -0.14991358      -1.50248432      -1.59952026        1 
H       3.55693314      -2.28804310       0.14919392        1 
H       2.36060300       3.51227856      -0.20840508        1 
H      -3.76615721       0.77866126      -0.15433747        1 
H      -2.89392007       1.09079901      -1.66195224        1 
H      -3.63548742      -1.52665373      -0.62441751        1 
H      -2.47546882      -1.29193285      -1.92761093        1 
H       4.12384929      -0.60658095      -0.09813655        1 
H       3.33826602      -1.08602301       1.44221266        1 
H       3.22557518       2.02686631       0.24291040        1 
H       2.43796684       3.01798472       1.51243556        1 
C      -1.76930091      -2.68355288       0.77991596        6 
H      -2.78916565      -2.72803765       1.16972366        1 
H      -1.63902930      -3.49796573       0.06223429        1 
H      -1.06380924      -2.83169903       1.59116023        1 
C      -1.68225752       2.15434835       0.88714133        6 
H      -2.63517169       2.21858558       1.41760139        1 
H      -0.86852536       2.23473928       1.60385462        1 
H      -1.61708455       2.99788055       0.19453577        1 
