35
Lattice="0.0 0.0 0.0 0.0 0.0 0.0 0.0 0.0 0.0" Properties=species:S:1:pos:R:3:Z:I:1 pbc="F F F"
C      -0.24649498       0.93654160       0.49788088        6 
C       0.36942063      -0.48176065       0.73885809        6 
C      -1.71575763       0.97861352       0.11262383        6 
C      -0.30297871      -1.56326847      -0.11083245        6 
O      -2.44735797       0.49551970       1.14610157        8 
O      -2.20404873       1.47875684      -0.86730107        8 
O       0.45873634      -2.66502819      -0.23782399        8 
O      -1.44046897      -1.52082456      -0.51221967        8 
C      -0.13915053      -3.77157983      -0.94122108        6 
C      -3.85454045       0.34592028       0.89669611        6 
C       0.84240994       1.63404016      -0.39932252        6 
C       1.84675610       2.23979288       0.60548420        6 
C       2.38994588       0.95463554       1.27790243        6 
C       1.85423347      -0.17169405       0.32985715        6 
O       1.61635950       0.52400716      -0.90829167        8 
H      -0.25045991       1.43883180       1.46922117        1 
H       0.27362602      -0.80000927       1.77960574        1 
H      -0.40299961      -3.47751992      -1.95769511        1 
H      -4.00954108      -0.37176581       0.08933454        1 
H       2.63294529       2.76474536       0.05898319        1 
H       1.38152720       2.94270804       1.29994948        1 
H       3.47967978       0.93927942       1.30529495        1 
H       2.03414968       0.82243752       2.30252327        1 
H       0.62141315      -4.54934159      -0.95107300        1 
H      -1.03508513      -4.11398446      -0.42160335        1 
H      -4.30433069       1.30262866       0.62756912        1 
H      -4.27764237      -0.02823561       1.82681627        1 
C       2.85759268      -1.28906778       0.12649663        6 
H       3.83516433      -0.84758658      -0.08065620        1 
H       2.93911082      -1.90167943       1.02779510        1 
H       2.58476536      -1.93542721      -0.70247520        1 
C       0.41724886       2.53875769      -1.53199940        6 
H       1.31125246       2.92162262      -2.03064175        1 
H      -0.20205437       2.00826164      -2.25211374        1 
H      -0.16184388       3.38311239      -1.15275133        1 
