35
Lattice="0.0 0.0 0.0 0.0 0.0 0.0 0.0 0.0 0.0" Properties=species:S:1:pos:R:3:Z:I:1 pbc="F F F"
C      -0.86904125       0.08909782      -0.89992189        6 
C       0.56079436      -0.51032792      -0.69606278        6 
C      -1.03700317       1.56173240      -0.54346692        6 
C       1.68265122       0.44598725      -0.34049215        6 
O      -1.08612534       1.79077910       0.77619005        8 
O      -1.15545779       2.42339122      -1.38259631        8 
O       2.86970047      -0.19761475      -0.43634831        8 
O       1.59638197       1.61586184      -0.06495638        8 
C       4.03888315       0.58303079      -0.12689681        6 
C      -1.10164224       3.17286069       1.17033024        6 
C      -1.72867426      -0.91384264      -0.06289211        6 
C      -1.69990412      -2.28807643      -0.80026471        6 
C      -0.30848040      -2.84378538      -0.40072877        6 
C       0.27894410      -1.64602619       0.38264774        6 
O      -0.87762761      -1.15151655       1.06983187        8 
H      -1.13813313       0.04003269      -1.95473807        1 
H       0.89130131      -0.99114068      -1.61799500        1 
H       3.98641005       0.96027486       0.89563624        1 
H      -1.96295957       3.68794689       0.74189528        1 
H      -2.50476239      -2.92506112      -0.43036956        1 
H      -1.83230462      -2.17758372      -1.87862070        1 
H      -0.40129012      -3.70169616       0.26832316        1 
H       0.31259237      -3.14037428      -1.24817605        1 
H       4.87952170      -0.09779378      -0.24101036        1 
H       4.12809768       1.42412213      -0.81582381        1 
H      -0.18262342       3.65692031       0.83754710        1 
H      -1.15975058       3.16243698       2.25662974        1 
C       1.36824547      -1.97467738       1.37837904        6 
H       0.99683352      -2.72304874       2.08203788        1 
H       2.25124786      -2.36730090       0.87293727        1 
H       1.66079999      -1.08822386       1.94538137        1 
C      -3.11029799      -0.46377860       0.35912424        6 
H      -3.59822040      -1.25618624       0.93115734        1 
H      -3.06354943       0.43270279       0.97505874        1 
H      -3.72102174      -0.25426539      -0.52387323        1 
