35
Lattice="0.0 0.0 0.0 0.0 0.0 0.0 0.0 0.0 0.0" Properties=species:S:1:pos:R:3:Z:I:1 pbc="F F F"
C      -0.82727840      -0.21878867      -0.65565755        6 
C       0.72849020      -0.15790762      -0.65553094        6 
C      -1.50892746       0.86229806       0.17224024        6 
C       1.31982273       1.20917675      -0.36234936        6 
O      -2.40233510       1.53388502      -0.59003172        8 
O      -1.35457529       1.06370852       1.34904375        8 
O       2.66171452       1.15083290      -0.24270391        8 
O       0.70405599       2.24650951      -0.34436323        8 
C       3.33105115       2.41034789      -0.03863444        6 
C      -3.10282883       2.60177471       0.07138583        6 
C      -1.05345619      -1.62930529      -0.01641468        6 
C      -0.50524776      -2.70163258      -1.00436066        6 
C       1.02227298      -2.63554445      -0.73919269        6 
C       1.10980098      -1.42332535       0.22135225        6 
O      -0.06446909      -1.62341606       1.02304073        8 
H      -1.22578584      -0.16419772      -1.66761938        1 
H       1.08066192      -0.34932000      -1.67461185        1 
H       2.96187075       2.89311971       0.86692336        1 
H      -2.39532688       3.36368097       0.40217992        1 
H      -0.91294072      -3.68232500      -0.75351258        1 
H      -0.77917933      -2.48428254      -2.03917790        1 
H       1.36946270      -3.53011980      -0.21854475        1 
H       1.62435214      -2.51157730      -1.64208195        1 
H       4.38601650       2.16419341       0.05897468        1 
H       3.16600358       3.07058905      -0.89141982        1 
H      -3.65498470       2.22374459       0.93328053        1 
H      -3.78444326       3.00750795      -0.67336682        1 
C       2.33142834      -1.37579806       1.10956964        6 
H       2.38871444      -2.30748649       1.67730439        1 
H       3.23987396      -1.26440195       0.51707287        1 
H       2.27439600      -0.54398507       1.81247817        1 
C      -2.43168247      -1.91383532       0.53908908        6 
H      -2.45737515      -2.91722074       0.96957161        1 
H      -2.69575647      -1.19815630       1.31815912        1 
H      -3.17827623      -1.86114662      -0.25823200        1 
