35
Lattice="0.0 0.0 0.0 0.0 0.0 0.0 0.0 0.0 0.0" Properties=species:S:1:pos:R:3:Z:I:1 pbc="F F F"
C      -0.37483480       0.62836054      -0.90473037        6 
C      -0.21428491      -0.90394009      -0.66375885        6 
C       0.72256300       1.55735101      -0.40889738        6 
C       1.14739654      -1.53454279      -0.43482044        6 
O       0.95453196       1.45421427       0.90999003        8 
O       1.27415187       2.36346079      -1.12176187        8 
O       2.16696740      -0.66148078      -0.41329775        8 
O       1.30444819      -2.73242841      -0.38354330        8 
C       3.48931154      -1.22087184      -0.30530775        6 
C       1.99753015       2.29143907       1.43014927        6 
C      -1.72914240       0.87329586      -0.14943782        6 
C      -2.85029806       0.09170421      -0.90249416        6 
C      -2.65467535      -1.35233860      -0.36739329        6 
C      -1.33502843      -1.19699012       0.42261076        6 
O      -1.53566853       0.08680169       1.03446590        8 
H      -0.46781161       0.84663856      -1.96773895        1 
H      -0.52599205      -1.41130046      -1.58064238        1 
H       3.66705984      -1.93564247      -1.10952330        1 
H       1.79469004       3.34224490       1.21767092        1 
H      -3.83049296       0.49131190      -0.63763656        1 
H      -2.74265513       0.16953399      -1.98665765        1 
H      -3.45426723      -1.62960309       0.32261268        1 
H      -2.60055456      -2.11222021      -1.14938562        1 
H       4.16621368      -0.37346411      -0.38561048        1 
H       3.60983513      -1.72256219       0.65598304        1 
H       2.95648432       2.01706607       0.98591790        1 
H       2.00717324       2.11047872       2.50277360        1 
C      -1.04859214      -2.24236707       1.47296200        6 
H      -1.89311550      -2.30323127       2.16336878        1 
H      -0.88921394      -3.21850624       1.01374679        1 
H      -0.15426400      -1.98432858       2.04367470        1 
C      -2.07033403       2.30784437       0.18868321        6 
H      -3.01178260       2.34341937       0.74088771        1 
H      -1.29460102       2.76531444       0.80351751        1 
H      -2.18251523       2.89471727      -0.72665647        1 
