35
Lattice="0.0 0.0 0.0 0.0 0.0 0.0 0.0 0.0 0.0" Properties=species:S:1:pos:R:3:Z:I:1 pbc="F F F"
C       0.09290685       0.89528304       0.60477774        6 
C       0.37912163      -0.59306999       0.91852030        6 
C      -1.32222128       1.42045413       0.45640644        6 
C      -0.49430595      -1.65930804       0.28188691        6 
O      -2.27439021       0.48792074       0.63400370        8 
O      -1.57025052       2.60057001       0.35866918        8 
O      -0.97462868      -1.31208169      -0.92151481        8 
O      -0.61746423      -2.76771338       0.75253636        8 
C      -1.73181036      -2.31428091      -1.61678829        6 
C      -3.63491652       0.95897594       0.64195908        6 
C       1.17049136       1.24519468      -0.50315207        6 
C       2.43690033       1.64566575       0.28409445        6 
C       2.77244136       0.29967858       0.98604095        6 
C       1.81543429      -0.69902244       0.26073456        6 
O       1.56905348      -0.04714074      -0.99425008        8 
H       0.39617908       1.45145942       1.49746082        1 
H       0.40195463      -0.80257953       1.98700730        1 
H      -2.63211406      -2.56957473      -1.05443203        1 
H      -3.88236554       1.41899565      -0.31571491        1 
H       3.22449461       1.93097595      -0.41654620        1 
H       2.26973484       2.47561361       0.97318036        1 
H       3.81101990       0.00723779       0.82606470        1 
H       2.59863586       0.31889742       2.06457180        1 
H      -1.99300173      -1.86764086      -2.57378835        1 
H      -1.13464327      -3.21531024      -1.76477229        1 
H      -3.78197897       1.68868710       1.43939556        1 
H      -4.24461596       0.07433615       0.81176822        1 
C       2.38159385      -2.08577390       0.05280670        6 
H       3.36210895      -2.01161321      -0.42239609        1 
H       2.49210631      -2.59654318       1.01193050        1 
H       1.73532369      -2.69430079      -0.58040732        1 
C       0.74463587       2.13932724      -1.64065588        6 
H       1.57241667       2.25673845      -2.34366270        1 
H      -0.10385036       1.70264880      -2.17139585        1 
H       0.44716473       3.11939243      -1.26649569        1 
