35
Lattice="0.0 0.0 0.0 0.0 0.0 0.0 0.0 0.0 0.0" Properties=species:S:1:pos:R:3:Z:I:1 pbc="F F F"
C       0.33523260       0.83182686       0.64091218        6 
C       0.20013709      -0.73904481       0.55262722        6 
C      -0.68459113       1.61070795      -0.19034719        6 
C      -1.14125982      -1.27126187       0.08862301        6 
O      -1.94055255       1.23945805       0.14675500        8 
O      -0.46312259       2.48613445      -0.98613155        8 
O      -1.95950300      -1.43194178       1.15379418        8 
O      -1.43817043      -1.62371383      -1.02631998        8 
C      -3.28229601      -1.90847534       0.86055505        6 
C      -3.00782160       1.87717449      -0.57903729        6 
C       1.81334362       0.99540380       0.17378618        6 
C       2.71651065       0.27251062       1.22759547        6 
C       2.62146295      -1.20759382       0.78535642        6 
C       1.48968120      -1.12631887      -0.26576444        6 
O       1.83415964       0.09312501      -0.94835135        8 
H       0.18912254       1.15891301       1.67349709        1 
H       0.30253097      -1.12344738       1.56780024        1 
H      -3.24155298      -2.89468123       0.39525818        1 
H      -2.94642867       1.62084860      -1.63755787        1 
H       3.73775975       0.65049457       1.17031237        1 
H       2.35991275       0.43875949       2.24726632        1 
H       3.54074006      -1.53365357       0.29491281        1 
H       2.39899492      -1.90252837       1.59776561        1 
H      -3.79377294      -1.95739773       1.81943217        1 
H      -3.79471055      -1.21852463       0.18785926        1 
H      -2.95561148       2.96041206      -0.46379790        1 
H      -3.92576121       1.48892763      -0.14315485        1 
C       1.42359483      -2.28401102      -1.23623605        6 
H       2.40672115      -2.42476729      -1.69121930        1 
H       1.15133719      -3.20450515      -0.71252301        1 
H       0.68557117      -2.10333822      -2.01413959        1 
C       2.32563920       2.36758139      -0.21352556        6 
H       3.38586090       2.29132866      -0.46590749        1 
H       1.77919227       2.77322516      -1.05930530        1 
H       2.22368672       3.05804060       0.62894367        1 
