35
Lattice="0.0 0.0 0.0 0.0 0.0 0.0 0.0 0.0 0.0" Properties=species:S:1:pos:R:3:Z:I:1 pbc="F F F"
C       0.23282598       0.79051483       0.62415902        6 
C       0.15184379      -0.78094491       0.59831935        6 
C      -0.86495693       1.53301354      -0.11609782        6 
C      -1.05110260      -1.39141832      -0.09361478        6 
O      -1.67038204       2.16724657       0.77926587        8 
O      -1.04952966       1.57051685      -1.30243371        8 
O      -1.78108869      -2.10889014       0.80289684        8 
O      -1.35313282      -1.29538192      -1.25336526        8 
C      -2.95581611      -2.75233317       0.27612705        6 
C      -2.78398831       2.88376964       0.21540023        6 
C       1.65642819       1.02372860      -0.00162841        6 
C       2.69731009       0.59736246       1.07161606        6 
C       2.62305167      -0.94856119       0.98739597        6 
C       1.52216128      -1.15006809      -0.08712623        6 
O       1.74747230      -0.03754436      -0.96072565        8 
H       0.20343101       1.13438778       1.65677398        1 
H       0.13513076      -1.15050611       1.62210637        1 
H      -2.68091155      -3.49145754      -0.47853694        1 
H      -3.42388866       2.20726244      -0.35359818        1 
H       3.68601718       0.96570104       0.79203650        1 
H       2.46056670       0.99423918       2.06098335        1 
H       3.56170686      -1.37299091       0.62638695        1 
H       2.37851282      -1.43113391       1.93566913        1 
H      -3.43028022      -3.23417936       1.12831527        1 
H      -3.62496520      -2.01720795      -0.17368725        1 
H      -2.43298023       3.67981470      -0.44344634        1 
H      -3.32231242       3.29954309       1.06450438        1 
C       1.58017137      -2.45734737      -0.84568449        6 
H       2.58094919      -2.60063209      -1.25866791        1 
H       1.36280546      -3.29440816      -0.17566948        1 
H       0.86061021      -2.46222602      -1.66430359        1 
C       1.91459151       2.36714455      -0.64790357        6 
H       2.93678345       2.39988545      -1.03082573        1 
H       1.22577757       2.54178037      -1.47336984        1 
H       1.79907629       3.16840797       0.08809752        1 
