35
Lattice="0.0 0.0 0.0 0.0 0.0 0.0 0.0 0.0 0.0" Properties=species:S:1:pos:R:3:Z:I:1 pbc="F F F"
C      -0.36364144       0.60895091      -0.89690348        6 
C      -0.08856395      -0.87868152      -0.57668409        6 
C       0.50176493       1.65235546      -0.20976946        6 
C       1.33045460      -1.39181728      -0.42221507        6 
O       1.01600149       1.23297756       0.95659805        8 
O       0.60162087       2.78969222      -0.61042247        8 
O       2.26336596      -0.48007900      -0.75633923        8 
O       1.59390067      -2.55454416      -0.22028086        8 
C       3.62315975      -0.94966411      -0.79931658        6 
C       1.77208548       2.20000025       1.70185760        6 
C      -1.81856673       0.71454851      -0.28414355        6 
C      -2.75224938      -0.29646068      -1.02403474        6 
C      -2.43355520      -1.63305629      -0.29734395        6 
C      -1.18481174      -1.22246427       0.51235165        6 
O      -1.60099267       0.07416184       0.98329548        8 
H      -0.34765843       0.82953869      -1.96341264        1 
H      -0.37674649      -1.43658525      -1.47464702        1 
H       3.71927256      -1.77760264      -1.50324949        1 
H       1.15671721       3.06916619       1.93908018        1 
H      -3.79553000      -0.00466559      -0.89716845        1 
H      -2.54846116      -0.32823474      -2.09711472        1 
H      -3.23652703      -1.90911252       0.38943399        1 
H      -2.25184494      -2.47196939      -0.97205004        1 
H       4.21277893      -0.09568138      -1.12505778        1 
H       3.94070515      -1.28202693       0.19017472        1 
H       2.64422249       2.52329205       1.13043728        1 
H       2.07851250       1.68882642       2.61181386        1 
C      -0.78315734      -2.10313765       1.66864738        6 
H      -1.62701432      -2.21465967       2.35351105        1 
H      -0.47446593      -3.08606215       1.31206718        1 
H       0.05219602      -1.65857387       2.21275385        1 
C      -2.40461198       2.09704422      -0.10623545        6 
H      -3.38816640       2.01548381       0.36161492        1 
H      -1.77329510       2.72976587       0.51741684        1 
H      -2.51680687       2.58626408      -1.07657917        1 
