35
Lattice="0.0 0.0 0.0 0.0 0.0 0.0 0.0 0.0 0.0" Properties=species:S:1:pos:R:3:Z:I:1 pbc="F F F"
C      -0.77087795       0.00368346      -0.76055627        6 
C       0.73805690      -0.34048323      -0.67451782        6 
C      -1.16176507       1.19153189       0.10437225        6 
C       1.63984401       0.88142479      -0.61868021        6 
O      -2.39226201       1.63181964      -0.24308298        8 
O      -0.49458285       1.69976532       0.96809389        8 
O       2.80825294       0.65786958       0.00675641        8 
O       1.37121532       1.91972394      -1.17267271        8 
C       3.72606543       1.76782255       0.03823208        6 
C      -2.90191773       2.74340867       0.51540112        6 
C      -1.36578337      -1.30355371      -0.11552562        6 
C      -0.95430884      -2.52154265      -1.00156362        6 
C       0.49380459      -2.80067389      -0.51719346        6 
C       0.75988366      -1.54704339       0.35019616        6 
O      -0.50691648      -1.42962739       1.02765739        8 
H      -1.12925153       0.16503418      -1.77597264        1 
H       1.02042063      -0.75687247      -1.64927682        1 
H       3.26591587       2.62315723       0.53417636        1 
H      -2.25727738       3.61473493       0.39171627        1 
H      -1.61441410      -3.36912816      -0.81244632        1 
H      -1.01697961      -2.28680738      -2.06687123        1 
H       0.53185209      -3.69000850       0.11501046        1 
H       1.21741436      -2.92110447      -1.32621840        1 
H       4.58684256       1.41300143       0.60089210        1 
H       4.01738826       2.05143641      -0.97430353        1 
H      -2.96116449       2.48842265       1.57496270        1 
H      -3.89337672       2.93871978       0.11253157        1 
C       1.86933514      -1.66465688       1.36760920        6 
H       1.66699318      -2.52743307       2.00723067        1 
H       2.83391256      -1.80494822       0.87863179        1 
H       1.92617507      -0.77034856       1.98711831        1 
C      -2.81729940      -1.29167782       0.31095920        6 
H      -3.07427302      -2.26083972       0.74450992        1 
H      -3.00684145      -0.52125358       1.05831601        1 
H      -3.46959085      -1.10536666      -0.54510814        1 
