35
Lattice="0.0 0.0 0.0 0.0 0.0 0.0 0.0 0.0 0.0" Properties=species:S:1:pos:R:3:Z:I:1 pbc="F F F"
C      -0.46425263       0.57356673      -0.92444277        6 
C      -0.09856788      -0.91247177      -0.64936247        6 
C       0.41188825       1.71550313      -0.43458756        6 
C       1.33031433      -1.42317610      -0.58457731        6 
O       0.88469103       1.55410832       0.80561646        8 
O       0.52993145       2.74540309      -1.06268207        8 
O       2.24920412      -0.54718504      -0.15552832        8 
O       1.61195060      -2.54372785      -0.94879871        8 
C       3.61106358      -1.01615055      -0.14394040        6 
C       1.64641299       2.64671758       1.34042932        6 
C      -1.82928235       0.62992364      -0.12537175        6 
C      -2.82651906      -0.38667169      -0.76626955        6 
C      -2.38823752      -1.72836454      -0.11923796        6 
C      -1.06590794      -1.29684107       0.55155818        6 
O      -1.44711471      -0.02398943       1.09317056        8 
H      -0.61656294       0.75535408      -1.98729782        1 
H      -0.46191747      -1.47108036      -1.51299562        1 
H       3.92599142      -1.29537037      -1.15045110        1 
H       1.04102560       3.55364145       1.38646261        1 
H      -3.85129259      -0.12514054      -0.49848145        1 
H      -2.76147648      -0.39075549      -1.85656777        1 
H      -3.09491090      -2.04423453       0.65118993        1 
H      -2.26281221      -2.54584010      -0.83127291        1 
H       4.19932815      -0.17900836       0.22523216        1 
H       3.71079811      -1.87906232       0.51562444        1 
H       2.52568432       2.83717488       0.72214279        1 
H       1.94052785       2.33189782       2.33928682        1 
C      -0.50978975      -2.19798586       1.62682431        6 
H      -1.25739618      -2.34437982       2.40935326        1 
H      -0.24243406      -3.17129538       1.20993133        1 
H       0.38042182      -1.75466375       2.07915685        1 
C      -2.40797279       2.00018178       0.14650946        6 
H      -3.33522471       1.90066440       0.71496726        1 
H      -1.71917418       2.62030337       0.72132324        1 
H      -2.62612511       2.51183110      -0.79364388        1 
