35
Lattice="0.0 0.0 0.0 0.0 0.0 0.0 0.0 0.0 0.0" Properties=species:S:1:pos:R:3:Z:I:1 pbc="F F F"
C      -0.81071021       0.21545336      -0.94550488        6 
C       0.52037568      -0.49731112      -0.61002187        6 
C      -1.07852417       1.58949492      -0.34771043        6 
C       1.79655664       0.32061720      -0.57083554        6 
O      -0.37113456       1.84111860       0.75779360        8 
O      -1.97321485       2.30277153      -0.74493067        8 
O       2.85872466      -0.52090285      -0.48193466        8 
O       1.91826914       1.51561528      -0.64587629        8 
C       4.15491605       0.10188664      -0.43933161        6 
C      -0.64983333       3.08289115       1.42299122        6 
C      -1.79610985      -0.79690478      -0.22728259        6 
C      -1.60667582      -2.21978391      -0.84867487        6 
C      -0.36550009      -2.75335396      -0.08272756        6 
C       0.11994150      -1.45468667       0.59504191        6 
O      -1.13428487      -0.91563394       1.04380633        8 
H      -1.00140436       0.28238727      -2.01603814        1 
H       0.72782627      -1.16325328      -1.45384884        1 
H       4.22683967       0.77774081       0.41424085        1 
H      -1.68165714       3.10225267       1.77840807        1 
H      -2.49141612      -2.83109313      -0.66652158        1 
H      -1.45819959      -2.17290130      -1.93014376        1 
H      -0.65185247      -3.47485950       0.68565613        1 
H       0.38869143      -3.21179703      -0.72562064        1 
H       4.86634363      -0.71530161      -0.34150399        1 
H       4.33969242       0.66378036      -1.35634102        1 
H      -0.48494405       3.92183722       0.74551322        1 
H       0.04458096       3.12445977       2.25892787        1 
C       1.07788752      -1.58639161       1.75334344        6 
H       0.62278852      -2.20301731       2.53207387        1 
H       2.00993724      -2.05177340       1.43131616        1 
H       1.30461932      -0.60557617       2.17686532        1 
C      -3.23892131      -0.37937111      -0.05386765        6 
H      -3.77711340      -1.15998919       0.48852959        1 
H      -3.32919249       0.55569206       0.49731677        1 
H      -3.71081620      -0.24003940      -1.02919576        1 
