35
Lattice="0.0 0.0 0.0 0.0 0.0 0.0 0.0 0.0 0.0" Properties=species:S:1:pos:R:3:Z:I:1 pbc="F F F"
C      -0.49843198       0.77110412      -0.73810168        6 
C      -0.14576440      -0.76513453      -0.81646383        6 
C       0.69281494       1.71369744      -0.72107923        6 
C       1.27231181      -1.07284649      -0.32357301        6 
O       1.15418831       1.97449760       0.51667245        8 
O       1.21830366       2.11779675      -1.72809610        8 
O       1.35018210      -2.06390946       0.57717275        8 
O       2.24867211      -0.49790702      -0.74059976        8 
C       2.67372489      -2.39831776       1.03716986        6 
C       2.39830513       2.69838781       0.57384636        6 
C      -1.60806063       0.79450586       0.38195909        6 
C      -2.92583960       0.47754519      -0.35958523        6 
C      -2.65663206      -0.97399160      -0.81954669        6 
C      -1.36024145      -1.34451683      -0.02029836        6 
O      -1.39502269      -0.43745966       1.09907779        8 
H      -0.97394155       1.02778651      -1.68541838        1 
H      -0.15274295      -1.08820694      -1.86052922        1 
H       3.13041552      -1.53996442       1.53133158        1 
H       2.29671972       3.67340395       0.09552630        1 
H      -3.75490124       0.51874529       0.34999036        1 
H      -3.13689108       1.17176628      -1.17560136        1 
H      -3.47287401      -1.64387704      -0.54673726        1 
H      -2.50659931      -1.06278765      -1.89825718        1 
H       2.53426103      -3.21653977       1.74022939        1 
H       3.30134514      -2.70885116       0.20090510        1 
H       3.17827796       2.12575669       0.07053592        1 
H       2.61958108       2.81093572       1.63310966        1 
C      -1.36327458      -2.78828368       0.44325067        6 
H      -2.33384758      -3.01288161       0.89152418        1 
H      -1.21793175      -3.45981359      -0.40795330        1 
H      -0.58317853      -2.98017464       1.17204775        1 
C      -1.67097835       1.96707212       1.33459594        6 
H      -2.52879599       1.84609224       1.99991969        1 
H      -0.76285634       2.03904793       1.92904094        1 
H      -1.79601380       2.90087347       0.77935222        1 
