35
Lattice="0.0 0.0 0.0 0.0 0.0 0.0 0.0 0.0 0.0" Properties=species:S:1:pos:R:3:Z:I:1 pbc="F F F"
C      -0.82042667       0.26595909      -0.90657436        6 
C       0.43823671      -0.60534002      -0.66045233        6 
C      -0.82486331       1.68090269      -0.35011292        6 
C       1.75511434       0.14523373      -0.59726634        6 
O      -0.18426314       1.79540041       0.82285330        8 
O      -1.45527507       2.57864217      -0.85915251        8 
O       2.76764922      -0.67286392      -0.23948359        8 
O       1.92258035       1.29427846      -0.92326064        8 
C       4.08388196      -0.08836155      -0.24206860        6 
C      -0.16632197       3.10872516       1.40508481        6 
C      -1.88695064      -0.59367878      -0.13421998        6 
C      -1.99635743      -1.98395201      -0.83284827        6 
C      -0.77163265      -2.73933296      -0.25007277        6 
C      -0.04237512      -1.59099836       0.48721144        6 
O      -1.16076802      -0.89800328       1.06627178        8 
H      -1.06538950       0.35687964      -1.96359784        1 
H       0.58639677      -1.22279235      -1.55400004        1 
H       4.12657228       0.75773001       0.44505062        1 
H      -1.18193117       3.45458701       1.60354761        1 
H      -2.93552867      -2.46687335      -0.55969396        1 
H      -1.97273892      -1.89435460      -1.92121394        1 
H      -1.08400092      -3.49246264       0.47641459        1 
H      -0.14996653      -3.22722270      -1.00349747        1 
H       4.75292502      -0.88171688       0.08397277        1 
H       4.34805852       0.25035634      -1.24503071        1 
H       0.33071411       3.81077539       0.73377341        1 
H       0.39140944       3.00602848       2.33341374        1 
C       0.92408035      -1.99626485       1.57443616        6 
H       0.39530239      -2.60912351       2.30819289        1 
H       1.75578229      -2.56910638       1.16396300        1 
H       1.32819783      -1.11877118       2.08153663        1 
C      -3.20724184       0.07079388       0.18317953        6 
H      -3.84441084      -0.62332723       0.73562484        1 
H      -3.06966033       0.96770330       0.78861542        1 
H      -3.71864558       0.35967687      -0.73807101        1 
