35
Lattice="0.0 0.0 0.0 0.0 0.0 0.0 0.0 0.0 0.0" Properties=species:S:1:pos:R:3:Z:I:1 pbc="F F F"
C      -0.74859259       0.22653548      -0.93050094        6 
C       0.56837070      -0.52721885      -0.56911713        6 
C      -1.02260092       1.64477092      -0.45768560        6 
C       1.84843248       0.22840989      -0.25573033        6 
O      -0.56856390       1.90898999       0.76536700        8 
O      -1.72814612       2.40041749      -1.09225540        8 
O       2.87188373      -0.37592543      -0.92352101        8 
O       2.02668663       1.16681153       0.47515893        8 
C       4.18303896       0.16418559      -0.68284191        6 
C      -0.86348721       3.21183797       1.29345325        6 
C      -1.78373926      -0.73664225      -0.22228054        6 
C      -1.69393116      -2.13886209      -0.90275399        6 
C      -0.45960460      -2.76531084      -0.20123798        6 
C       0.08729542      -1.53700629       0.55954643        6 
O      -1.12997323      -0.94930159       1.03636089        8 
H      -0.90690107       0.24270530      -2.00820612        1 
H       0.83060329      -1.12285466      -1.44226102        1 
H       4.44199965       0.08376667       0.37433534        1 
H      -1.94180669       3.34959616       1.39238214        1 
H      -2.60275054      -2.71064368      -0.70826820        1 
H      -1.57970617      -2.05800709      -1.98588225        1 
H      -0.75872759      -3.53118148       0.51789173        1 
H       0.26649641      -3.20356719      -0.88870943        1 
H       4.85909865      -0.43462936      -1.28942512        1 
H       4.22520460       1.21281769      -0.98144894        1 
H      -0.46059862       3.98673433       0.63968540        1 
H      -0.37891287       3.24196207       2.26628673        1 
C       1.03957428      -1.80545578       1.70057918        6 
H       0.56777589      -2.47000474       2.42758750        1 
H       1.94795159      -2.28834327       1.33097202        1 
H       1.31366959      -0.87610087       2.20244877        1 
C      -3.18972380      -0.21541269      -0.02437956        6 
H      -3.79173759      -0.97256021       0.48250463        1 
H      -3.19781107       0.69255619       0.57951634        1 
H      -3.64892605       0.01304339      -0.98859013        1 
