35
Lattice="0.0 0.0 0.0 0.0 0.0 0.0 0.0 0.0 0.0" Properties=species:S:1:pos:R:3:Z:I:1 pbc="F F F"
C      -0.47503093       0.63721618       0.61199533        6 
C       0.76085342      -0.26379064       0.93663381        6 
C      -1.77150544      -0.03476968       0.20644439        6 
C       0.67725322      -1.73165976       0.54172042        6 
O      -2.80992164       0.60801451       0.79946934        8 
O      -1.92919829      -0.95638161      -0.55339697        8 
O       0.65772558      -1.93212370      -0.77877999        8 
O       0.71342279      -2.62565897       1.35826054        8 
C       0.47342780      -3.28694609      -1.21886108        6 
C      -4.12424333       0.13369898       0.45186231        6 
C       0.11659284       1.63318804      -0.46864948        6 
C       0.87430983       2.71756395       0.33318845        6 
C       2.07135855       1.89772557       0.88219778        6 
C       1.88172078       0.52401898       0.16841091        6 
O       1.19899813       0.89260089      -1.04112311        8 
H      -0.72497585       1.21258535       1.50215569        1 
H       0.94750177      -0.27448776       2.00941932        1 
H      -0.50598222      -3.64755429      -0.90096218        1 
H      -4.23394763      -0.91780980       0.72040465        1 
H       1.21150128       3.50073311      -0.34922882        1 
H       0.25944563       3.18060895       1.10687051        1 
H       3.02618600       2.33702360       0.58975675        1 
H       2.06985133       1.79832236       1.96978805        1 
H       0.52671176      -3.24544999      -2.30442276        1 
H       1.25208958      -3.93641328      -0.81587114        1 
H      -4.30107567       0.25048495      -0.61870672        1 
H      -4.81481448       0.74972571       1.02361361        1 
C       3.16493680      -0.22117722      -0.12620419        6 
H       3.86079124       0.43317271      -0.65561407        1 
H       3.63688767      -0.54245059       0.80649942        1 
H       2.97673885      -1.09766274      -0.74521392        1 
C      -0.82986265       2.12268240      -1.53953884        6 
H      -0.29705548       2.77640229      -2.23335681        1 
H      -1.24423857       1.28397058      -2.10195766        1 
H      -1.65165610       2.68872151      -1.09301500        1 
