35
Lattice="0.0 0.0 0.0 0.0 0.0 0.0 0.0 0.0 0.0" Properties=species:S:1:pos:R:3:Z:I:1 pbc="F F F"
C      -0.41161750       0.61441053      -0.92313362        6 
C      -0.19504074      -0.90621726      -0.66817122        6 
C       0.63280997       1.61433575      -0.45027926        6 
C       1.18310232      -1.52308735      -0.52203505        6 
O       0.92901413       1.51518785       0.85286874        8 
O       1.06580248       2.48920950      -1.16638067        8 
O       2.16875343      -0.66636971      -0.21672486        8 
O       1.37492586      -2.70023370      -0.72856582        8 
C       3.49471660      -1.22402497      -0.14196409        6 
C       1.89763124       2.44963287       1.35056243        6 
C      -1.75924037       0.81034559      -0.13260529        6 
C      -2.86197565      -0.05742416      -0.81791899        6 
C      -2.58549014      -1.46576522      -0.22348696        6 
C      -1.23946595      -1.21386283       0.49015895        6 
O      -1.48005174       0.07676068       1.06831948        8 
H      -0.53856628       0.81667306      -1.98573234        1 
H      -0.56035239      -1.42812103      -1.55451458        1 
H       3.77249871      -1.67264274      -1.09649821        1 
H       1.54498828       3.47516958       1.22723405        1 
H      -3.85278487       0.31001280      -0.54611847        1 
H      -2.78469385      -0.02692625      -1.90712196        1 
H      -3.33964364      -1.73552765       0.51887322        1 
H      -2.53569360      -2.26096564      -0.96954099        1 
H       4.14619079      -0.38534138       0.09271570        1 
H       3.54398448      -1.98237953       0.64046522        1 
H       2.84507859       2.33369933       0.82075944        1 
H       2.01578764       2.20943661       2.40495823        1 
C      -0.82520905      -2.20593937       1.54968504        6 
H      -1.61463995      -2.29418554       2.29925525        1 
H      -0.64264353      -3.18711563       1.10819181        1 
H       0.08893761      -1.87488772       2.04758205        1 
C      -2.16662625       2.23494674       0.17138949        6 
H      -3.09260697       2.23940916       0.75025720        1 
H      -1.39924450       2.75247895       0.74817977        1 
H      -2.33421483       2.78527803      -0.75784130        1 
