35
Lattice="0.0 0.0 0.0 0.0 0.0 0.0 0.0 0.0 0.0" Properties=species:S:1:pos:R:3:Z:I:1 pbc="F F F"
C      -0.76143471       0.23096648      -0.93247403        6 
C       0.52355154      -0.58755551      -0.59387490        6 
C      -0.83477424       1.68811394      -0.49748137        6 
C       1.79985822       0.15371917      -0.24631773        6 
O      -0.71054725       1.86312175       0.81979620        8 
O      -1.08858756       2.58263256      -1.27442349        8 
O       2.84847518      -0.48336694      -0.83002441        8 
O       1.94062219       1.11931562       0.45954841        8 
C       4.15171232       0.05534801      -0.54324369        6 
C      -0.71196448       3.22176603       1.28565551        6 
C      -1.83431006      -0.65112508      -0.19653215        6 
C      -1.87587516      -2.04577713      -0.89469069        6 
C      -0.64945608      -2.76180908      -0.26707496        6 
C      -0.00235871      -1.59500291       0.51398830        6 
O      -1.16183831      -0.93793863       1.03850082        8 
H      -0.93213220       0.24833618      -2.00789325        1 
H       0.78305438      -1.17345369      -1.47467157        1 
H       4.35664887       0.00998489       0.52762116        1 
H      -1.64244851       3.72299765       1.01386296        1 
H      -2.80810143      -2.55774866      -0.65133069        1 
H      -1.81716283      -1.96015590      -1.98194003        1 
H      -0.96231756      -3.53657611       0.43633180        1 
H       0.02361368      -3.21360614      -0.99782591        1 
H       4.85077251      -0.57014268      -1.09411342        1 
H       4.21789585       1.09182446      -0.87719556        1 
H       0.13204319       3.76335492       0.85603686        1 
H      -0.60944940       3.15417383       2.36619645        1 
C       0.95640754      -1.96126773       1.62176393        6 
H       0.46166015      -2.62240622       2.33636819        1 
H       1.82822810      -2.48075108       1.21592629        1 
H       1.29217085      -1.06742620       2.15092182        1 
C      -3.18818807      -0.02047312       0.04155522        6 
H      -3.83233946      -0.71841591       0.58093958        1 
H      -3.10335441       0.89319184       0.63052550        1 
H      -3.66267762       0.22119591      -0.91304199        1 
