35
Lattice="0.0 0.0 0.0 0.0 0.0 0.0 0.0 0.0 0.0" Properties=species:S:1:pos:R:3:Z:I:1 pbc="F F F"
C       0.47223510       0.86653226       0.60050313        6 
C       0.03338588      -0.62557305       0.69189018        6 
C      -0.61282240       1.84586300       0.18558095        6 
C      -1.16411041      -0.96669588      -0.16978934        6 
O      -1.75266230       1.56241335       0.86255643        8 
O      -0.48826793       2.81898438      -0.51129446        8 
O      -1.82768350      -2.02714395       0.34504716        8 
O      -1.48884743      -0.41533863      -1.19133736        8 
C      -2.95436950      -2.49253190      -0.42023635        6 
C      -2.88746770       2.39314437       0.56231892        6 
C       1.80557126       0.77701843      -0.22713049        6 
C       2.89938461       0.35750220       0.78953053        6 
C       2.47983219      -1.10086744       1.11279456        6 
C       1.31365214      -1.32898622       0.10818618        6 
O       1.64105045      -0.44697896      -0.97165756        8 
H       0.71425298       1.20501775       1.61383104        1 
H      -0.16973985      -0.94851539       1.71141120        1 
H      -2.63484726      -2.81927615      -1.41132583        1 
H      -3.15303501       2.29526071      -0.49143512        1 
H       3.87376839       0.38533871       0.29862597        1 
H       2.93851023       1.01116327       1.66302454        1 
H       3.28839352      -1.80543574       0.91142678        1 
H       2.16245274      -1.24589489       2.14780820        1 
H      -3.36469760      -3.32699906       0.14421220        1 
H      -3.69475591      -1.69837842      -0.52727743        1 
H      -2.67013492       3.43843696       0.78648369        1 
H      -3.69231351       2.02520219       1.19539148        1 
C       1.15330354      -2.74995523      -0.38679254        6 
H       2.10736377      -3.11278142      -0.77530478        1 
H       0.83432196      -3.40495126       0.42708628        1 
H       0.41568574      -2.80948234      -1.18931136        1 
C       2.18570046       1.90475802      -1.15901358        6 
H       3.14561868       1.66861899      -1.62499612        1 
H       1.43443592       2.04360827      -1.93376086        1 
H       2.27983686       2.84423437      -0.61142059        1 
