35
Lattice="0.0 0.0 0.0 0.0 0.0 0.0 0.0 0.0 0.0" Properties=species:S:1:pos:R:3:Z:I:1 pbc="F F F"
C       0.19615778       0.95037021       0.55855061        6 
C       0.35959943      -0.59307039       0.87215968        6 
C      -1.16821964       1.30271421      -0.00726159        6 
C      -0.84682138      -1.41952281       0.45568061        6 
O      -2.06374208       1.32801562       1.00439956        8 
O      -1.45767615       1.54581568      -1.15169121        8 
O      -0.87937423      -1.66816751      -0.86434327        8 
O      -1.72690456      -1.74767196       1.21630751        8 
C      -2.04515111      -2.34756900      -1.36306899        6 
C      -3.43907098       1.53638357       0.63919131        6 
C       1.45390502       1.22343766      -0.33279938        6 
C       2.66678066       1.27788417       0.63673320        6 
C       2.82634027      -0.21323623       1.02577049        6 
C       1.72139133      -0.88938337       0.16415450        6 
O       1.66424032      -0.03833951      -0.99119723        8 
H       0.27017008       1.50237566       1.49650556        1 
H       0.43526423      -0.74284107       1.94828991        1 
H      -2.94393182      -1.76668799      -1.15077791        1 
H      -3.77822155       0.73970523      -0.02471819        1 
H       3.54233788       1.64171015       0.09618812        1 
H       2.49733008       1.93988657       1.48862460        1 
H       3.80583035      -0.59894432       0.73766962        1 
H       2.69341663      -0.40416222       2.09271731        1 
H      -1.89104641      -2.42992242      -2.43638774        1 
H      -2.13790627      -3.33462918      -0.90727282        1 
H      -3.56359487       2.49951633       0.14204496        1 
H      -3.99306175       1.50891762       1.57450164        1 
C       2.01149428      -2.32495932      -0.21989916        6 
H       3.00895304      -2.39409870      -0.65930387        1 
H       1.98329556      -2.96429347       0.66721079        1 
H       1.28573657      -2.69212961      -0.94345688        1 
C       1.39219945       2.35612039      -1.33462466        6 
H       2.35646335       2.44574127      -1.83974915        1 
H       0.61015408       2.18376977      -2.06980578        1 
H       1.18341382       3.30075050      -0.82390141        1 
