35
Lattice="0.0 0.0 0.0 0.0 0.0 0.0 0.0 0.0 0.0" Properties=species:S:1:pos:R:3:Z:I:1 pbc="F F F"
C       0.23946376       0.96947270       0.60678149        6 
C       0.37490291      -0.57638921       0.87464225        6 
C      -1.10562102       1.39519380       0.03684252        6 
C      -0.82080407      -1.43025930       0.50660550        6 
O      -2.08745496       0.96448965       0.86403237        8 
O      -1.32110710       2.06558772      -0.93909806        8 
O      -1.15248909      -1.30660786      -0.79439221        8 
O      -1.41357428      -2.14111246       1.28115694        8 
C      -2.28391282      -2.07241177      -1.24176003        6 
C      -3.43663997       1.24922032       0.45482637        6 
C       1.51599829       1.24596068      -0.25309994        6 
C       2.73270588       1.14288870       0.71465033        6 
C       2.87031655      -0.38782193       0.90667067        6 
C       1.68093705      -0.91168612       0.06465625        6 
O       1.63302457       0.03025688      -1.01662916        8 
H       0.30675519       1.49775413       1.56188053        1 
H       0.52879247      -0.76606605       1.93544815        1 
H      -3.16347897      -1.84534188      -0.63761630        1 
H      -3.62631652       0.83300680      -0.53585788        1 
H       3.61647889       1.56443458       0.23354443        1 
H       2.56953940       1.68713460       1.64741463        1 
H       3.80644080      -0.75917008       0.48540278        1 
H       2.81867314      -0.71028196       1.94860786        1 
H      -2.43919149      -1.77923749      -2.27762763        1 
H      -2.07186448      -3.14096645      -1.17327832        1 
H      -3.61092354       2.32593579       0.42967593        1 
H      -4.07061549       0.77348917       1.19963891        1 
C       1.82486550      -2.32844433      -0.44702444        6 
H       2.77188629      -2.43417953      -0.98057502        1 
H       1.81772849      -3.03510975       0.38720916        1 
H       1.01462376      -2.58282283      -1.13078410        1 
C       1.55281773       2.45861352      -1.15836886        6 
H       2.53187483       2.51302328      -1.64019809        1 
H       0.77623469       2.41509479      -1.91700960        1 
H       1.40605626       3.37118534      -0.57402615        1 
