35
Lattice="0.0 0.0 0.0 0.0 0.0 0.0 0.0 0.0 0.0" Properties=species:S:1:pos:R:3:Z:I:1 pbc="F F F"
C      -0.49984627       0.59562216      -0.80634561        6 
C      -0.06566665      -0.89847233      -0.59853374        6 
C       0.44424617       1.75340210      -0.54280466        6 
C       1.24653683      -1.13310834       0.13736378        6 
O       1.41231190       1.49589914       0.34456090        8 
O       0.29336647       2.83288808      -1.06887531        8 
O       2.23618080      -1.33260650      -0.77081599        8 
O       1.43260808      -1.14913699       1.32497162        8 
C       3.55608972      -1.49960405      -0.22705947        6 
C       2.30315474       2.57998808       0.66372607        6 
C      -1.82475824       0.66647642       0.06894430        6 
C      -2.94569632       0.04088372      -0.79187044        6 
C      -2.52079505      -1.44913287      -0.79983325        6 
C      -1.30807850      -1.45047617       0.18042425        6 
O      -1.60933830      -0.34992626       1.05490244        8 
H      -0.77637366       0.74013887      -1.85081303        1 
H       0.03564095      -1.38058817      -1.57084162        1 
H       3.59088378      -2.36284141       0.43929438        1 
H       1.74214324       3.43143305       1.05049557        1 
H      -3.90416201       0.17646681      -0.28639313        1 
H      -3.01899641       0.48970123      -1.78414594        1 
H      -3.31139331      -2.09379355      -0.41243108        1 
H      -2.24958447      -1.81951270      -1.79087600        1 
H       4.20858222      -1.65069612      -1.08445136        1 
H       3.85126605      -0.60758538       0.32824717        1 
H       2.85849354       2.88800624      -0.22359140        1 
H       2.97331686       2.18351775       1.42302477        1 
C      -1.13769250      -2.73907056       0.95612434        6 
H      -2.08075091      -2.99987161       1.44128956        1 
H      -0.86828032      -3.55323525       0.27624592        1 
H      -0.36498299      -2.64155654       1.71582825        1 
C      -2.15007295       1.98772536       0.72518134        6 
H      -3.06625957       1.88715928       1.31083914        1 
H      -1.34617211       2.29893267       1.39512177        1 
H      -2.29240519       2.76520838      -0.02737933        1 
