35
Lattice="0.0 0.0 0.0 0.0 0.0 0.0 0.0 0.0 0.0" Properties=species:S:1:pos:R:3:Z:I:1 pbc="F F F"
C      -0.32646659       0.77008584      -0.86299637        6 
C      -0.44865199      -0.80677007      -0.79412755        6 
C       1.07674117       1.24129096      -0.48534130        6 
C       0.88571412      -1.52450348      -0.73337373        6 
O       1.18004629       1.79205104       0.73357632        8 
O       2.02710714       1.07074421      -1.21216217        8 
O       1.40891214      -1.55770922       0.51034580        8 
O       1.47210590      -1.91850125      -1.70963025        8 
C       2.75077606      -2.07110156       0.60852191        6 
C       2.51110716       2.14344232       1.15329521        6 
C      -1.53257690       1.17292638       0.03943083        6 
C      -2.83088824       0.71232757      -0.69923289        6 
C      -2.89183027      -0.79411078      -0.35069011        6 
C      -1.52219340      -0.99329513       0.34182374        6 
O      -1.41744951       0.21850594       1.11145417        8 
H      -0.46387332       1.09685526      -1.89477504        1 
H      -0.86888175      -1.14987734      -1.73946799        1 
H       3.41776727      -1.49420348      -0.03342867        1 
H       2.95037672       2.87224106       0.47081890        1 
H      -3.69464196       1.25310237      -0.31023950        1 
H      -2.77628857       0.90499534      -1.77294061        1 
H      -3.68771588      -1.00201005       0.36703988        1 
H      -3.03166597      -1.44468695      -1.21630083        1 
H       3.02516627      -1.96371838       1.65584495        1 
H       2.78153999      -3.12035506       0.31048460        1 
H       3.14220568       1.25416959       1.18296306        1 
H       2.39654481       2.56560371       2.14906401        1 
C      -1.42309363      -2.21463199       1.22796555        6 
H      -2.26093774      -2.22884810       1.92886668        1 
H      -1.46903612      -3.12429400       0.62204851        1 
H      -0.49108079      -2.21717301       1.78936247        1 
C      -1.61585665       2.59604470       0.55202231        6 
H      -2.52821249       2.71588357       1.14077989        1 
H      -0.75964992       2.85338152       1.16864369        1 
H      -1.66448281       3.29068758      -0.29216095        1 
