35
Lattice="0.0 0.0 0.0 0.0 0.0 0.0 0.0 0.0 0.0" Properties=species:S:1:pos:R:3:Z:I:1 pbc="F F F"
C       0.47715907       0.82169370       0.61713445        6 
C       0.04130170      -0.66882462       0.67644999        6 
C      -0.56775622       1.87857026       0.30925247        6 
C      -1.14296209      -1.02266024      -0.20239707        6 
O      -1.81586869       1.43491733       0.56141208        8 
O      -0.32118249       3.02907033       0.04079469        8 
O      -1.95707256      -1.89323598       0.44195816        8 
O      -1.33125229      -0.65497303      -1.33356052        8 
C      -3.09588255      -2.35445874      -0.30615743        6 
C      -2.88370403       2.37826273       0.36243299        6 
C       1.79489799       0.75784859      -0.25447547        6 
C       2.92085296       0.36173780       0.73203338        6 
C       2.50415718      -1.08960384       1.09546732        6 
C       1.33356981      -1.34969199       0.09958236        6 
O       1.63839949      -0.47015508      -0.98863884        8 
H       0.77406365       1.11193810       1.63118515        1 
H      -0.17136312      -0.99786616       1.69210331        1 
H      -2.77669393      -2.87945824      -1.20798777        1 
H      -2.91362482       2.69655790      -0.68040837        1 
H       3.87772290       0.37511045       0.20698139        1 
H       2.99074152       1.03250267       1.59053203        1 
H       3.31421663      -1.79779741       0.91470169        1 
H       2.18882138      -1.20484387       2.13502586        1 
H      -3.62875762      -3.02892481       0.36079951        1 
H      -3.73080165      -1.51340095      -0.58935029        1 
H      -2.75046200       3.25007455       1.00461295        1 
H      -3.79379625       1.84298256       0.62426008        1 
C       1.19099507      -2.77888415      -0.37649416        6 
H       2.14407244      -3.13386089      -0.77462494        1 
H       0.89723118      -3.42799331       0.45237904        1 
H       0.44198092      -2.85864084      -1.16649919        1 
C       2.10070018       1.89287767      -1.20171553        6 
H       3.02924348       1.67214833      -1.73393256        1 
H       1.29937483       2.01473662      -1.93092829        1 
H       2.20977015       2.83297960      -0.66071655        1 
