35
Lattice="0.0 0.0 0.0 0.0 0.0 0.0 0.0 0.0 0.0" Properties=species:S:1:pos:R:3:Z:I:1 pbc="F F F"
C      -0.57011872       0.52333051       0.61948953        6 
C       0.80170011      -0.13993465       0.93875188        6 
C      -1.75921993      -0.36244126       0.31193853        6 
C       1.03119858      -1.58080707       0.50601743        6 
O      -2.88854102       0.26291414       0.73539292        8 
O      -1.78093893      -1.42884503      -0.24724002        8 
O       0.89958572      -1.77398342      -0.80930580        8 
O       1.40682409      -2.43603491       1.27713478        8 
C       1.04699415      -3.12537160      -1.27262169        6 
C      -4.12748460      -0.41261583       0.45239470        6 
C      -0.18761397       1.57241091      -0.51062659        6 
C       0.33846307       2.81563523       0.24206867        6 
C       1.64545417       2.24747668       0.85968734        6 
C       1.75276655       0.84954200       0.17342134        6 
O       1.02838308       1.04373360      -1.05087125        8 
H      -0.87962323       1.08870932       1.49833046        1 
H       0.99646987      -0.13022299       2.01009298        1 
H       0.27878314      -3.75808912      -0.82565187        1 
H      -4.15030686      -1.38860189       0.93945731        1 
H       0.55303318       3.60710645      -0.47910818        1 
H      -0.36821922       3.20352822       0.97828975        1 
H       2.51200530       2.85994123       0.60593774        1 
H       1.60562075       2.16377137       1.94791160        1 
H       0.91729993      -3.07438690      -2.35133920        1 
H       2.03394784      -3.51590740      -1.01902825        1 
H      -4.25339284      -0.54659620      -0.62334084        1 
H      -4.90686969       0.23262021       0.85200711        1 
C       3.16314162       0.37066613      -0.08990471        6 
H       3.71963676       1.13574866      -0.63555008        1 
H       3.67657186       0.17521364       0.85488801        1 
H       3.16328338      -0.54389103      -0.68339839        1 
C      -1.20553112       1.81172581      -1.60095919        6 
H      -0.79706167       2.50127126      -2.34300971        1 
H      -1.46272427       0.87686257      -2.10390098        1 
H      -2.11592649       2.24836120      -1.18410374        1 
