35
Lattice="0.0 0.0 0.0 0.0 0.0 0.0 0.0 0.0 0.0" Properties=species:S:1:pos:R:3:Z:I:1 pbc="F F F"
C      -0.37464539       0.63222036      -0.82791435        6 
C      -0.10718300      -0.88241171      -0.54103245        6 
C       0.52584129       1.65391802      -0.15079802        6 
C       1.32428910      -1.25119475      -0.19278400        6 
O       1.35106650       1.11973263       0.76339086        8 
O       0.44150080       2.84272433      -0.35118329        8 
O       2.13113221      -0.84413944      -1.20535193        8 
O       1.72404004      -1.87566820       0.75483567        8 
C       3.53474969      -1.09692979      -1.03179245        6 
C       2.16455991       2.03535928       1.51655140        6 
C      -1.83256314       0.75095460      -0.23684873        6 
C      -2.76619579      -0.16505261      -1.08687408        6 
C      -2.48852662      -1.56436867      -0.48389441        6 
C      -1.28084306      -1.26153618       0.43491367        6 
O      -1.67428876       0.01340249       0.98618084        8 
H      -0.35854919       0.86371257      -1.89302440        1 
H      -0.26573816      -1.41408808      -1.48446601        1 
H       3.72272672      -2.16490678      -0.91181432        1 
H       1.53328309       2.70778464       2.09897088        1 
H      -3.80644802       0.13430015      -0.95252214        1 
H      -2.53898495      -0.09843851      -2.15324756        1 
H      -3.32626678      -1.90451359       0.12780774        1 
H      -2.27302762      -2.33383901      -1.22819630        1 
H       4.01184422      -0.72308841      -1.93528423        1 
H       3.90870313      -0.56613399      -0.15431731        1 
H       2.79628345       2.62193776       0.84790172        1 
H       2.76664551       1.41052384       2.17243239        1 
C      -1.04491677      -2.26254843       1.54203534        6 
H      -1.97702590      -2.40424582       2.09522061        1 
H      -0.73349510      -3.22443102       1.12947256        1 
H      -0.26806866      -1.92446565       2.22433518        1 
C      -2.39607279       2.12823800       0.03391304        6 
H      -3.40501744       2.02482841       0.43953392        1 
H      -1.78825614       2.68369086       0.74631657        1 
H      -2.44461803       2.70799753      -0.89002695        1 
