35
Lattice="0.0 0.0 0.0 0.0 0.0 0.0 0.0 0.0 0.0" Properties=species:S:1:pos:R:3:Z:I:1 pbc="F F F"
C      -0.37566960       0.61197166      -0.90802503        6 
C      -0.17387522      -0.90687442      -0.64313294        6 
C       0.64746462       1.59376407      -0.35990315        6 
C       1.20906078      -1.49817615      -0.44107923        6 
O       0.94398583       1.39227531       0.93368131        8 
O       1.07370634       2.52440654      -1.00445648        8 
O       2.20564573      -0.59894520      -0.49514555        8 
O       1.40128008      -2.69005296      -0.37076825        8 
C       3.54517025      -1.12329452      -0.43162872        6 
C       1.89954500       2.29610886       1.50794399        6 
C      -1.76084007       0.81304380      -0.18974226        6 
C      -2.83001343      -0.04203543      -0.93945423        6 
C      -2.58836658      -1.45751639      -0.34677132        6 
C      -1.28385003      -1.22073171       0.44706172        6 
O      -1.55183951       0.06983175       1.01917889        8 
H      -0.44176964       0.82738537      -1.97352165        1 
H      -0.48191353      -1.42898347      -1.55356980        1 
H       3.71058866      -1.84365357      -1.23364867        1 
H       1.55028029       3.32719191       1.43363537        1 
H      -3.83197059       0.32593052      -0.71314180        1 
H      -2.69862925       0.00129029      -2.02308129        1 
H      -3.38492440      -1.73625188       0.34620467        1 
H      -2.49727911      -2.24440840      -1.09783081        1 
H       4.19674313      -0.26024633      -0.54740382        1 
H       3.71582530      -1.60991862       0.52978671        1 
H       2.85976528       2.20731996       0.99589488        1 
H       1.99182175       1.99657697       2.54965487        1 
C      -0.95061718      -2.21960434       1.52793702        6 
H      -1.79251310      -2.30200542       2.21925238        1 
H      -0.74209932      -3.19929243       1.09682483        1 
H      -0.07082966      -1.89966912       2.08968460        1 
C      -2.16966125       2.23919753       0.10430567        6 
H      -3.12611191       2.24896464       0.63115133        1 
H      -1.42932142       2.74299638       0.72737653        1 
H      -2.27720275       2.80090907      -0.82686049        1 
