35
Lattice="0.0 0.0 0.0 0.0 0.0 0.0 0.0 0.0 0.0" Properties=species:S:1:pos:R:3:Z:I:1 pbc="F F F"
C      -0.77467800       0.52244712      -0.86911892        6 
C       0.22709146      -0.64110185      -0.63101975        6 
C      -0.48461772       1.81407487      -0.08902581        6 
C       1.69754787      -0.29768959      -0.77782139        6 
O       0.74765327       1.84634904       0.44663223        8 
O      -1.31066947       2.66145037       0.15227237        8 
O       2.50018965      -1.09130362      -0.04185761        8 
O       2.11384548       0.53121817      -1.54887634        8 
C       3.91487428      -0.88491806      -0.21323115        6 
C       1.04344981       2.97453496       1.28780260        6 
C      -2.04191149      -0.15009355      -0.20703823        6 
C      -2.31772845      -1.53564759      -0.88395723        6 
C      -1.33851789      -2.47913410      -0.13693146        6 
C      -0.43930481      -1.43827527       0.56442864        6 
O      -1.44400479      -0.52346117       1.05396892        8 
H      -0.90746259       0.76306524      -1.92458102        1 
H       0.12016947      -1.28747262      -1.51145002        1 
H       4.18511250       0.13861368       0.05016341        1 
H       0.38874950       2.97628304       2.16066787        1 
H      -3.35716989      -1.82658705      -0.73172276        1 
H      -2.14438810      -1.50177912      -1.96262895        1 
H      -1.85819966      -3.07638846       0.61554958        1 
H      -0.78530421      -3.15405337      -0.79404249        1 
H       4.39410244      -1.59385238       0.45850247        1 
H       4.20693368      -1.07600034      -1.24704934        1 
H       0.91181791       3.90627891       0.73646698        1 
H       2.08237999       2.84834555       1.58444081        1 
C       0.39807937      -1.92906025       1.72108731        6 
H      -0.26707264      -2.35404187       2.47710766        1 
H       1.10480079      -2.69404403       1.39921306        1 
H       0.96206623      -1.11121512       2.17046956        1 
C      -3.30999205       0.65156824      -0.00158814        6 
H      -4.05693951       0.01036335       0.47291721        1 
H      -3.14888794       1.53042272       0.61459220        1 
H      -3.70289383       0.98125777      -0.96734314        1 
