35
Lattice="0.0 0.0 0.0 0.0 0.0 0.0 0.0 0.0 0.0" Properties=species:S:1:pos:R:3:Z:I:1 pbc="F F F"
C      -0.24961623       0.55421523      -0.71783441        6 
C       0.01962725      -0.97061862      -0.51073916        6 
C       0.63993409       1.44196981       0.15096530        6 
C       1.43891648      -1.35767871      -0.12561640        6 
O       0.24761409       2.73023046       0.10172720        8 
O       1.65095574       1.09633415       0.71079965        8 
O       2.27928909      -0.94734753      -1.10693718        8 
O       1.78851803      -2.03941200       0.80233240        8 
C       3.67851576      -1.15891798      -0.85700818        6 
C       1.07210137       3.67006413       0.81729791        6 
C      -1.76236838       0.59737742      -0.28304181        6 
C      -2.56624671      -0.32766578      -1.25409926        6 
C      -2.32844403      -1.73060220      -0.64466946        6 
C      -1.20366303      -1.42236758       0.36949119        6 
O      -1.68585624      -0.17833016       0.92651156        8 
H      -0.10550155       0.87076649      -1.75257119        1 
H      -0.08605463      -1.44167651      -1.49247374        1 
H       3.89332732      -2.22139975      -0.73247984        1 
H       2.08284003       3.67804545       0.40664513        1 
H      -3.62227909      -0.05590105      -1.24817210        1 
H      -2.20995831      -0.23844068      -2.28342877        1 
H      -3.21032916      -2.08027243      -0.10426796        1 
H      -2.04863497      -2.49118242      -1.37696284        1 
H       4.19303148      -0.76510695      -1.73130923        1 
H       3.97939529      -0.61802040       0.04153617        1 
H       1.11603683       3.40932493       1.87544799        1 
H       0.59325110       4.63692754       0.67894746        1 
C      -1.00803983      -2.44567198       1.46329207        6 
H      -1.96875455      -2.62906053       1.95156518        1 
H      -0.63970556      -3.38587992       1.04829581        1 
H      -0.28534440      -2.10311730       2.20093629        1 
C      -2.44708648       1.92250674      -0.01837982        6 
H      -3.49800208       1.73385345       0.21314476        1 
H      -1.99657540       2.45226559       0.81717237        1 
H      -2.39331791       2.56449009      -0.90015221        1 
