35
Lattice="0.0 0.0 0.0 0.0 0.0 0.0 0.0 0.0 0.0" Properties=species:S:1:pos:R:3:Z:I:1 pbc="F F F"
C      -0.51691066       0.56045032      -0.87645864        6 
C       0.13164515      -0.84370812      -0.59600199        6 
C       0.18113199       1.85842044      -0.51129460        6 
C       1.53762448      -0.90501798      -0.02159086        6 
O       0.74135966       1.85248151       0.69911655        8 
O       0.12819475       2.83809405      -1.22292248        8 
O       2.37834728      -1.42776192      -0.95596083        8 
O       1.91194193      -0.56931181       1.07058313        8 
C       3.75582153      -1.54812204      -0.55893426        6 
C       1.35092640       3.07824055       1.13743126        6 
C      -1.88311351       0.41915015      -0.09543873        6 
C      -2.77552516      -0.55639590      -0.91024531        6 
C      -2.13513547      -1.92636555      -0.57145953        6 
C      -0.95359117      -1.50382288       0.34108716        6 
O      -1.50183502      -0.37438139       1.03533895        8 
H      -0.71339644       0.66233534      -1.94269105        1 
H       0.17770904      -1.38703629      -1.53797824        1 
H       3.84742517      -2.19961556       0.31169975        1 
H       0.60217160       3.86825052       1.21932954        1 
H      -3.80586965      -0.49762428      -0.55475332        1 
H      -2.77458258      -0.32310887      -1.97638289        1 
H      -2.82285191      -2.55654815      -0.00396319        1 
H      -1.80922836      -2.48996859      -1.44759427        1 
H       4.26885341      -1.97871220      -1.41617660        1 
H       4.16984510      -0.56808181      -0.31593682        1 
H       2.12619554       3.39157304       0.43653344        1 
H       1.78023956       2.84941654       2.10979601        1 
C      -0.48690845      -2.56277121       1.31534356        6 
H      -1.33945794      -2.92980780       1.89046696        1 
H      -0.05072247      -3.40800030       0.77452486        1 
H       0.25553531      -2.16123940       2.00360404        1 
C      -2.56004616       1.69936098       0.34107911        6 
H      -3.48471871       1.46219106       0.87129785        1 
H      -1.92008757       2.27637554       1.01067624        1 
H      -2.80265417       2.31834972      -0.52586999        1 
