35
Lattice="0.0 0.0 0.0 0.0 0.0 0.0 0.0 0.0 0.0" Properties=species:S:1:pos:R:3:Z:I:1 pbc="F F F"
C       0.13689497       0.79741929       0.59128518        6 
C       0.41108681      -0.75163588       0.69728375        6 
C      -1.17795707       1.22698642      -0.03795213        6 
C      -0.62029495      -1.75667706       0.19872509        6 
O      -2.08612935       1.48387108       0.93447537        8 
O      -1.39469686       1.42096138      -1.20697241        8 
O      -1.84123878      -1.23155714       0.00821274        8 
O      -0.38736191      -2.93279042       0.05487040        8 
C      -2.86493166      -2.13742284      -0.44455290        6 
C      -3.38915868       1.88226352       0.48181987        6 
C       1.41689818       1.29297713      -0.16373684        6 
C       2.58230119       1.25625726       0.86208848        6 
C       2.86299481      -0.26214608       0.97067719        6 
C       1.82106710      -0.85310432      -0.01801281        6 
O       1.72189171       0.17712750      -1.01436216        8 
H       0.11644466       1.20852301       1.60074386        1 
H       0.53014779      -1.02331119       1.74949214        1 
H      -2.99506670      -2.95142055       0.26941360        1 
H      -3.82873094       1.10332657      -0.14360477        1 
H       3.44212956       1.79155079       0.45526688        1 
H       2.31674070       1.72501286       1.81169727        1 
H       3.86934567      -0.50575656       0.62654062        1 
H       2.75017110      -0.66007874       1.98100500        1 
H      -3.76948713      -1.53811703      -0.51660841        1 
H      -2.59980276      -2.54800234      -1.41936896        1 
H      -3.33105904       2.80830829      -0.09268567        1 
H      -3.98065605       2.02753304       1.38339514        1 
C       2.24376201      -2.15433180      -0.66384167        6 
H       3.23447879      -2.01489392      -1.10348215        1 
H       2.29126180      -2.95798466       0.07184478        1 
H       1.55341810      -2.45878387      -1.44872379        1 
C       1.33072505       2.57847376      -0.95858489        6 
H       2.31026883       2.80318204      -1.38641683        1 
H       0.60064036       2.49947748      -1.76085022        1 
H       1.04593861       3.40841275      -0.30475770        1 
