35
Lattice="0.0 0.0 0.0 0.0 0.0 0.0 0.0 0.0 0.0" Properties=species:S:1:pos:R:3:Z:I:1 pbc="F F F"
C      -0.10843699       0.59332958      -0.71594027        6 
C      -0.24321555      -0.94773842      -0.53505025        6 
C       0.95335636       1.20967032       0.18479772        6 
C       1.02951449      -1.69246093      -0.16845459        6 
O       1.07593118       2.53184653      -0.06020345        8 
O       1.66815732       0.61893426       0.95522594        8 
O       2.01125593      -1.33653259      -1.03289480        8 
O       1.15157526      -2.57596016       0.63942264        8 
C       3.29817555      -1.92940490      -0.79152085        6 
C       2.07529828       3.22593794       0.70982636        6 
C      -1.54970064       1.02622635      -0.24869772        6 
C      -2.58890749       0.38386239      -1.22133459        6 
C      -2.71305046      -1.05685508      -0.66225464        6 
C      -1.54071846      -1.08355675       0.34572893        6 
O      -1.67292295       0.22707467       0.93861609        8 
H       0.09958597       0.89249652      -1.74316993        1 
H      -0.46834926      -1.36139270      -1.52380324        1 
H       3.23743179      -3.01778123      -0.83764638        1 
H       3.05769626       2.77976069       0.54953796        1 
H      -3.53638586       0.92230280      -1.16984404        1 
H      -2.24713829       0.41815226      -2.25855778        1 
H      -3.65354554      -1.19136376      -0.12415450        1 
H      -2.63960312      -1.83558024      -1.42459430        1 
H       3.94637690      -1.54822317      -1.57798885        1 
H       3.66715886      -1.62688441       0.18986752        1 
H       1.83249177       3.18500658       1.77288921        1 
H       2.05535087       4.25279721       0.35157714        1 
C      -1.61625414      -2.14909770       1.41399160        6 
H      -2.58099639      -2.06962039       1.92170890        1 
H      -1.52969662      -3.14403818       0.97385472        1 
H      -0.81477063      -2.03607961       2.14106032        1 
C      -1.81897743       2.48253005       0.06369621        6 
H      -2.86280604       2.59315952       0.36636590        1 
H      -1.18521830       2.84786942       0.86992747        1 
H      -1.64277386       3.10335165      -0.81750483        1 
