35
Lattice="0.0 0.0 0.0 0.0 0.0 0.0 0.0 0.0 0.0" Properties=species:S:1:pos:R:3:Z:I:1 pbc="F F F"
C      -0.15637985       0.59415098      -0.73968677        6 
C      -0.06708302      -0.93021021      -0.50255918        6 
C       0.69096506       1.42065375       0.22310136        6 
C       1.26092780      -1.64395399      -0.33028024        6 
O       0.62433151       2.73387578      -0.10738601        8 
O       1.41092458       1.00421844       1.09200964        8 
O       2.31959203      -0.87057416      -0.61973007        8 
O       1.34289683      -2.84368083      -0.19293399        8 
C       3.59827016      -1.52898199      -0.64204195        6 
C       1.41348328       3.62442013       0.70094488        6 
C      -1.67575387       0.78011806      -0.32084712        6 
C      -2.58084695      -0.14281868      -1.20148882        6 
C      -2.47018450      -1.51032975      -0.47473384        6 
C      -1.27980038      -1.22578602       0.46590945        6 
O      -1.64248187       0.08787823       0.94124816        8 
H       0.05005826       0.89992526      -1.76466139        1 
H      -0.34861193      -1.37802774      -1.46381446        1 
H       3.61329206      -2.31349430      -1.40086149        1 
H       2.46832374       3.35005444       0.65196620        1 
H      -3.60503022       0.23220291      -1.20831318        1 
H      -2.23896769      -0.17690348      -2.23883457        1 
H      -3.36222339      -1.71776211       0.11991936        1 
H      -2.29269905      -2.35508307      -1.14371987        1 
H       4.31862226      -0.74908455      -0.87856500        1 
H       3.81560430      -1.96683552       0.33283521        1 
H       1.08368536       3.59055596       1.74075690        1 
H       1.25418367       4.61540764       0.28118069        1 
C      -1.05947641      -2.16627802       1.62352532        6 
H      -1.97031488      -2.22275431       2.22449597        1 
H      -0.80266794      -3.16264009       1.26272601        1 
H      -0.24463844      -1.81015156       2.25702427        1 
C      -2.22691708       2.17858660      -0.14506700        6 
H      -3.27780595       2.11238473       0.14575916        1 
H      -1.69099516       2.73363811       0.62218755        1 
H      -2.15856612       2.73861847      -1.08075622        1 
