35
Lattice="0.0 0.0 0.0 0.0 0.0 0.0 0.0 0.0 0.0" Properties=species:S:1:pos:R:3:Z:I:1 pbc="F F F"
C      -0.61627807       0.43463662       0.72506751        6 
C       0.89374357       0.02492091       0.84732011        6 
C      -1.58144276      -0.61773151       0.20925316        6 
C       1.16628377      -1.45926679       0.62643801        6 
O      -2.85046681      -0.16298872       0.33190594        8 
O      -1.32603675      -1.72972321      -0.17689043        8 
O       1.47699738      -1.78000419      -0.63693046        8 
O       1.10374104      -2.25991386       1.52945457        8 
C       1.56288814      -3.18688197      -0.92341502        6 
C      -3.88921954      -1.06227048      -0.09722081        6 
C      -0.50149680       1.68677229      -0.24742789        6 
C       0.07948685       2.85386675       0.59122849        6 
C       1.56252004       2.43097445       0.72898313        6 
C       1.59243264       1.08924803      -0.05907116        6 
O       0.60605033       1.31791252      -1.08072842        8 
H      -1.01592546       0.75323304       1.68777628        1 
H       1.20000231       0.17551265       1.88333805        1 
H       0.59728148      -3.65590716      -0.73172817        1 
H      -3.83521534      -2.00002556       0.45713950        1 
H      -0.01718392       3.78833273       0.03531050        1 
H      -0.43500935       2.97706208       1.54632009        1 
H       2.22534471       3.15204545       0.24800377        1 
H       1.89256500       2.31114273       1.76261779        1 
H       1.81994503      -3.25129295      -1.97870243        1 
H       2.33047725      -3.65963070      -0.30912074        1 
H      -3.79666029      -1.27042927      -1.16460459        1 
H      -4.82358850      -0.54536123       0.11034666        1 
C       2.94355002       0.75848676      -0.65593262        6 
H       3.31399249       1.61759096      -1.21983104        1 
H       3.65988011       0.53968709       0.14149876        1 
H       2.88323475      -0.10314828      -1.31535536        1 
C      -1.69092456       2.05101264      -1.10920029        6 
H      -1.41886444       2.89705865      -1.74452714        1 
H      -1.98631320       1.22183206      -1.75365376        1 
H      -2.54724143       2.33111494      -0.49444035        1 
