35
Lattice="0.0 0.0 0.0 0.0 0.0 0.0 0.0 0.0 0.0" Properties=species:S:1:pos:R:3:Z:I:1 pbc="F F F"
C      -0.86888580      -0.33800985      -0.61404817        6 
C       0.67737508      -0.08435724      -0.66433393        6 
C      -1.67788941       0.72333116       0.12233503        6 
C       1.15305698       1.28097518      -0.19671503        6 
O      -2.25628868       1.55484077      -0.77351609        8 
O      -1.85917200       0.79330400       1.31050148        8 
O       2.49933760       1.35840611      -0.26377439        8 
O       0.46083137       2.22489578       0.09209364        8 
C       3.07927881       2.62674876       0.09483749        6 
C      -2.95988870       2.67614221      -0.21279908        6 
C      -0.92315195      -1.74909694       0.05249112        6 
C      -0.36587548      -2.77142744      -0.98110281        6 
C       1.16226382      -2.53514309      -0.87973769        6 
C       1.22578080      -1.35348196       0.11962991        6 
O       0.14478513      -1.66005701       1.00987147        8 
H      -1.26529869      -0.37371136      -1.62876215        1 
H       1.02646669      -0.14109339      -1.69805553        1 
H       2.81493380       2.89069159       1.11981933        1 
H      -2.26423997       3.30494507       0.34498643        1 
H      -0.63510757      -3.78519518      -0.68054706        1 
H      -0.76752345      -2.60368794      -1.98272256        1 
H       1.66842208      -3.40114537      -0.44838537        1 
H       1.64024479      -2.30707852      -1.83456002        1 
H       4.15412059       2.48997730      -0.00113159        1 
H       2.72927651       3.41004663      -0.57931371        1 
H      -3.75801146       2.33837743       0.45019094        1 
H      -3.37087502       3.21721496      -1.06269876        1 
C       2.51452814      -1.24513854       0.90395088        6 
H       2.69397510      -2.19619328       1.41056110        1 
H       3.35609495      -1.02810819       0.24549100        1 
H       2.45590767      -0.45922380       1.65797147        1 
C      -2.21993377      -2.16786566       0.71084057        6 
H      -2.11423109      -3.17606676       1.11792702        1 
H      -2.48946557      -1.48770287       1.51646092        1 
H      -3.02824439      -2.18205963      -0.02663599        1 
