35
Lattice="0.0 0.0 0.0 0.0 0.0 0.0 0.0 0.0 0.0" Properties=species:S:1:pos:R:3:Z:I:1 pbc="F F F"
C      -0.77235270       0.33367950       0.75666912        6 
C       0.77720513       0.14401177       0.75148144        6 
C      -1.52205783      -0.99162178       0.73661412        6 
C       1.23129171      -1.07108036      -0.04261964        6 
O      -2.42833694      -1.11814394      -0.24085398        8 
O      -1.33254465      -1.82891407       1.58782579        8 
O       2.55750736      -1.27054191       0.11317205        8 
O       0.52522523      -1.82118454      -0.66889790        8 
C       3.10252826      -2.42466120      -0.55349219        6 
C      -3.08793010      -2.39591833      -0.32040505        6 
C      -0.97422979       1.50954727      -0.27345668        6 
C      -0.74556374       2.80021677       0.55173837        6 
C       0.75953000       2.67188326       0.89981759        6 
C       1.19828014       1.46608132       0.01201522        6 
O       0.23720028       1.47697932      -1.05699546        8 
H      -1.03545652       0.71765586       1.74667543        1 
H       1.20347492       0.07549464       1.75181547        1 
H       2.95308984      -2.34892899      -1.63173245        1 
H      -3.63996889      -2.60264415       0.59759932        1 
H      -0.93048050       3.66947400      -0.08241470        1 
H      -1.39812959       2.86752380       1.42445467        1 
H       1.31684491       3.56795734       0.62368467        1 
H       0.94237998       2.48102464       1.95978207        1 
H       4.16312976      -2.42462138      -0.31222032        1 
H       2.62369153      -3.33406916      -0.18765323        1 
H      -2.34945834      -3.18082811      -0.48719900        1 
H      -3.76561561      -2.31774269      -1.16789375        1 
C       2.60192372       1.57439913      -0.54346250        6 
H       2.73020554       2.55670085      -1.00356120        1 
H       3.34195178       1.45789434       0.25094314        1 
H       2.79196072       0.81295293      -1.29916205        1 
C      -2.17948495       1.53950647      -1.18543383        6 
H      -2.14644749       2.45297306      -1.78432486        1 
H      -2.19325264       0.67680167      -1.84757761        1 
H      -3.10362578       1.53660346      -0.60345130        1 
