35
Lattice="0.0 0.0 0.0 0.0 0.0 0.0 0.0 0.0 0.0" Properties=species:S:1:pos:R:3:Z:I:1 pbc="F F F"
C      -0.81964971       0.31645462      -0.89586503        6 
C       0.37272798      -0.66187937      -0.69557274        6 
C      -0.65565084       1.73218574      -0.36832213        6 
C       1.73235218       0.01142707      -0.61464413        6 
O      -0.01547900       1.78579433       0.81180410        8 
O      -1.15036813       2.69477031      -0.90572306        8 
O       2.67856433      -0.80232406      -0.10865310        8 
O       1.97657473       1.10600448      -1.06093413        8 
C       4.02127644      -0.28002498      -0.09908619        6 
C       0.17833839       3.09884846       1.36224169        6 
C      -1.93065772      -0.43235239      -0.07834788        6 
C      -2.23793433      -1.77926827      -0.79807923        6 
C      -1.05561978      -2.67049437      -0.33293536        6 
C      -0.17717542      -1.64083839       0.42172986        6 
O      -1.18631277      -0.85279850       1.07537873        8 
H      -1.09916047       0.42310231      -1.94252491        1 
H       0.47916396      -1.25269795      -1.61293892        1 
H       4.07208569       0.62507785       0.50746442        1 
H      -0.78020991       3.59752642       1.51287886        1 
H      -3.19639488      -2.17488828      -0.45782656        1 
H      -2.29487697      -1.65933450      -1.88226683        1 
H      -1.39397993      -3.43608512       0.36826648        1 
H      -0.52671160      -3.16777691      -1.14911476        1 
H       4.63377055      -1.06757340       0.33433722        1 
H       4.34821342      -0.05081785      -1.11433126        1 
H       0.79683346       3.69763158       0.69163827        1 
H       0.68291172       2.94273894       2.31336960        1 
C       0.76327649      -2.22192987       1.45185346        6 
H       0.18328072      -2.82486238       2.15499951        1 
H       1.51408338      -2.85488982       0.97794338        1 
H       1.27801216      -1.43633643       2.00477177        1 
C      -3.14447581       0.37519936       0.32301372        6 
H      -3.82816811      -0.25030947       0.90099512        1 
H      -2.86312284       1.23454928       0.93302761        1 
H      -3.66794153       0.74173460      -0.56309572        1 
