35
Lattice="0.0 0.0 0.0 0.0 0.0 0.0 0.0 0.0 0.0" Properties=species:S:1:pos:R:3:Z:I:1 pbc="F F F"
C      -0.40954423       0.56187479      -0.88117928        6 
C      -0.21316712      -0.97630988      -0.59015838        6 
C       0.78801652       1.44767248      -0.60292996        6 
C       1.10922861      -1.30240697       0.09021541        6 
O       1.14379986       1.43458467       0.69495323        8 
O       1.37344369       2.07963212      -1.44932340        8 
O       2.10915674      -1.15481769      -0.81293953        8 
O       1.29892210      -1.63897200       1.22933039        8 
C       3.44410401      -1.35874969      -0.31862987        6 
C       2.29727085       2.21603950       1.05123491        6 
C      -1.70894429       0.87028910      -0.04630996        6 
C      -2.89801927       0.34201296      -0.88439586        6 
C      -2.70515698      -1.18907362      -0.75402635        6 
C      -1.50291426      -1.28733500       0.23312184        6 
O      -1.64565619      -0.08887610       1.01863379        8 
H      -0.60597234       0.71024632      -1.94198556        1 
H      -0.20586895      -1.52090902      -1.53583625        1 
H       3.58283436      -2.39634641      -0.01036989        1 
H       2.10147010       3.27805502       0.89288664        1 
H      -3.83367668       0.66359220      -0.42324839        1 
H      -2.88422678       0.70503812      -1.91388460        1 
H      -3.58210161      -1.66809396      -0.31589054        1 
H      -2.49741823      -1.68382081      -1.70545306        1 
H       4.10145631      -1.11397518      -1.14978311        1 
H       3.63753609      -0.70526902       0.53324449        1 
H       3.15880959       1.92012356       0.45093849        1 
H       2.46955533       2.00974433       2.10498781        1 
C      -1.52592372      -2.52390672       1.10639561        6 
H      -2.50564660      -2.61109924       1.58171137        1 
H      -1.36433654      -3.41701159       0.49510716        1 
H      -0.75567150      -2.48322663       1.87226187        1 
C      -1.86845177       2.27615232       0.48886642        6 
H      -2.81231336       2.35911271       1.03197185        1 
H      -1.05478405       2.53103854       1.16756420        1 
H      -1.88169150       2.99558480      -0.33471478        1 
