35
Lattice="0.0 0.0 0.0 0.0 0.0 0.0 0.0 0.0 0.0" Properties=species:S:1:pos:R:3:Z:I:1 pbc="F F F"
C      -0.72552843      -0.17820128      -0.60831296        6 
C       0.82197051      -0.11663303      -0.68565407        6 
C      -1.46048504       1.11328343      -0.31366399        6 
C       1.48657574       0.95791608       0.16602046        6 
O      -2.78912942       0.92836280      -0.50965685        8 
O      -0.98757093       2.17290987       0.00736305        8 
O       2.35092115       1.67346765      -0.59569681        8 
O       1.32777516       1.14642387       1.34204166        8 
C       3.03494085       2.74184070       0.08294311        6 
C      -3.62996428       2.06937779      -0.26008963        6 
C      -0.97342079      -1.44287980       0.32070405        6 
C      -0.91076318      -2.66249035      -0.62706907        6 
C       0.58137501      -2.61859821      -1.05704697        6 
C       1.16654441      -1.53255163      -0.10180654        6 
O       0.27180106      -1.58311203       1.01928468        8 
H      -1.09678781      -0.44330394      -1.60190294        1 
H       1.16955113      -0.00419596      -1.71153080        1 
H       3.62055574       2.35398452       0.91795841        1 
H      -3.35825546       2.89559465      -0.91880552        1 
H      -1.13166315      -3.57013061      -0.06122597        1 
H      -1.61374266      -2.59875899      -1.46042960        1 
H       1.07922915      -3.57482165      -0.88881032        1 
H       0.71923478      -2.35352741      -2.10787292        1 
H       3.68440803       3.19243003      -0.66470655        1 
H       2.31413794       3.47023168       0.45775059        1 
H      -3.53621865       2.39229085       0.77794609        1 
H      -4.64370848       1.73266730      -0.46633127        1 
C       2.59860737      -1.75958842       0.32838114        6 
H       2.70731465      -2.76436141       0.74227754        1 
H       3.26913702      -1.66476325      -0.53001640        1 
H       2.89874052      -1.04050743       1.09166537        1 
C      -2.12064947      -1.39744138       1.30217936        6 
H      -2.11426601      -2.30754105       1.90605944        1 
H      -2.02215628      -0.53956019       1.97070853        1 
H      -3.07447638      -1.32454647       0.77815771        1 
