35
Lattice="0.0 0.0 0.0 0.0 0.0 0.0 0.0 0.0 0.0" Properties=species:S:1:pos:R:3:Z:I:1 pbc="F F F"
C      -0.02478851       0.61221785      -0.70871090        6 
C      -0.40212214      -0.88298671      -0.55521689        6 
C       1.09919864       1.06547611       0.20590549        6 
C       0.70629976      -1.87545763      -0.25576454        6 
O       1.63385272       2.22040601      -0.25473328        8 
O       1.48663954       0.50640241       1.19960633        8 
O       1.88473264      -1.44794718      -0.75714736        8 
O       0.54252981      -2.99089942       0.17401645        8 
C       2.99881400      -2.34465922      -0.60520146        6 
C       2.68557158       2.78963416       0.54553513        6 
C      -1.36891112       1.26317546      -0.20133655        6 
C      -2.51442763       0.83746889      -1.17142698        6 
C      -2.86534090      -0.58298314      -0.65281058        6 
C      -1.70256787      -0.83265097       0.33672649        6 
O      -1.61496330       0.46355864       0.96310960        8 
H       0.21226888       0.89800411      -1.73225902        1 
H      -0.71098682      -1.23124499      -1.54845997        1 
H       2.79084690      -3.30170081      -1.08616355        1 
H       3.52583505       2.09744755       0.61859747        1 
H      -3.35964693       1.52171927      -1.08334359        1 
H      -2.18745771       0.84907977      -2.21381053        1 
H      -3.80711846      -0.57854761      -0.10080416        1 
H      -2.93046593      -1.33907167      -1.43828422        1 
H       3.83879269      -1.84703970      -1.08507494        1 
H       3.20590696      -2.50858673       0.45324329        1 
H       2.32234363       3.01785290       1.54899483        1 
H       2.98211831       3.70024619       0.02962717        1 
C      -1.92340037      -1.90287477       1.37721655        6 
H      -2.84075920      -1.67975401       1.92814443        1 
H      -2.01542926      -2.88350838       0.90953180        1 
H      -1.09040218      -1.94317940       2.07903402        1 
C      -1.34642247       2.73221185       0.15843602        6 
H      -2.33532587       3.03520651       0.50912859        1 
H      -0.62561735       2.93488182       0.95148769        1 
H      -1.07954660       3.33766579      -0.71057928        1 
