35
Lattice="0.0 0.0 0.0 0.0 0.0 0.0 0.0 0.0 0.0" Properties=species:S:1:pos:R:3:Z:I:1 pbc="F F F"
C      -0.41543884       0.58609079      -0.87537800        6 
C      -0.14813331      -0.94108766      -0.59067784        6 
C       0.68961880       1.57033312      -0.54630977        6 
C       1.19358617      -1.24299011       0.05916116        6 
O       1.09915278       1.48177331       0.72763056        8 
O       1.13061937       2.37077568      -1.33838117        8 
O       2.13416857      -1.35151964      -0.91394291        8 
O       1.44808578      -1.34507388       1.23008041        8 
C       3.48366165      -1.56972302      -0.46533359        6 
C       2.15025386       2.37480614       1.13311691        6 
C      -1.74943000       0.81916831      -0.06811864        6 
C      -2.89060475       0.19090639      -0.90721528        6 
C      -2.62385960      -1.32217020      -0.70594667        6 
C      -1.40655429      -1.31060758       0.26500711        6 
O      -1.62748270      -0.10572072       1.01882429        8 
H      -0.59410270       0.73308451      -1.93921392        1 
H      -0.15265047      -1.48119771      -1.53753911        1 
H       3.55145258      -2.49713735       0.10544732        1 
H       1.82031470       3.41227013       1.05655455        1 
H      -3.85332530       0.48432322      -0.48457278        1 
H      -2.86862435       0.50948115      -1.95114473        1 
H      -3.47089943      -1.81598785      -0.22684386        1 
H      -2.40868792      -1.85407691      -1.63519161        1 
H       4.08415256      -1.63046536      -1.37019519        1 
H       3.81614569      -0.73992992       0.16061048        1 
H       3.03266020       2.23375804       0.50678477        1 
H       2.36479176       2.11241773       2.16627533        1 
C      -1.32071798      -2.51726171       1.17481506        6 
H      -2.28012037      -2.66491209       1.67562720        1 
H      -1.10065797      -3.41493951       0.58908460        1 
H      -0.54172088      -2.38788005       1.92264696        1 
C      -2.00971799       2.22248547       0.43219476        6 
H      -2.95015416       2.24608762       0.98673052        1 
H      -1.21129642       2.55733099       1.09514613        1 
H      -2.08644640       2.91794475      -0.40780315        1 
