35
Lattice="0.0 0.0 0.0 0.0 0.0 0.0 0.0 0.0 0.0" Properties=species:S:1:pos:R:3:Z:I:1 pbc="F F F"
C       0.08387130       0.85602674       0.51358040        6 
C       0.39091209      -0.64928781       0.81010530        6 
C      -1.35807518       1.21701411       0.20993485        6 
C      -0.43976197      -1.68904150       0.06145848        6 
O      -2.13212979       0.83134329       1.25552279        8 
O      -1.78488080       1.84002705      -0.72754611        8 
O      -1.45743931      -1.15829364      -0.63650188        8 
O      -0.17302085      -2.86627513       0.02963970        8 
C      -2.22912867      -2.06146642      -1.44823991        6 
C      -3.54147690       1.06930867       1.11345463        6 
C       1.23410264       1.25334393      -0.48435397        6 
C       2.41611905       1.66131837       0.42249801        6 
C       2.72294693       0.31351521       1.12261759        6 
C       1.87665626      -0.69911568       0.28433623        6 
O       1.70350374      -0.02184946      -0.97453232        8 
H       0.25741560       1.39228160       1.45189878        1 
H       0.32252539      -0.88555738       1.87336229        1 
H      -2.68037876      -2.83775239      -0.82893555        1 
H      -3.93432371       0.51213264       0.26064769        1 
H       3.25322281       1.98314053      -0.20020968        1 
H       2.16660375       2.47139994       1.11142971        1 
H       3.78127072       0.05751288       1.06631250        1 
H       2.43769874       0.29964818       2.17762971        1 
H      -2.99248826      -1.44415517      -1.91645356        1 
H      -1.59337704      -2.52470677      -2.20377549        1 
H      -3.74264324       2.13194242       0.96992098        1 
H      -3.99217551       0.71535598       2.03830231        1 
C       2.55932784      -2.03606251       0.08993852        6 
H       3.58070072      -1.86091650      -0.25632190        1 
H       2.59870913      -2.58174456       1.03535956        1 
H       2.04162577      -2.65898424      -0.63472043        1 
C       0.94148460       2.18019366      -1.64118716        6 
H       1.86484172       2.34636520      -2.20218666        1 
H       0.18799917       1.75909586      -2.30387343        1 
H       0.56929983       3.14104683      -1.28162880        1 
