35
Lattice="0.0 0.0 0.0 0.0 0.0 0.0 0.0 0.0 0.0" Properties=species:S:1:pos:R:3:Z:I:1 pbc="F F F"
C       0.32009633       0.96014242       0.73120610        6 
C       0.33682656      -0.61331382       0.80611022        6 
C      -0.85709801       1.66679793       0.06227499        6 
C      -1.01757984      -1.30571193       0.82366610        6 
O      -1.94366615       0.89313159      -0.08297398        8 
O      -0.82716390       2.81901624      -0.29765541        8 
O      -1.36657849      -1.88905464      -0.33504935        8 
O      -1.70112591      -1.34776689       1.81917475        8 
C      -2.65257057      -2.53021240      -0.35256543        6 
C      -3.09281943       1.50793377      -0.69398650        6 
C       1.66147991       1.18969641      -0.06169110        6 
C       2.82915304       0.66424460       0.83265947        6 
C       2.79180378      -0.85803363       0.56463964        6 
C       1.46932319      -0.98659428      -0.22891871        6 
O       1.53748239       0.17435122      -1.07583811        8 
H       0.37969078       1.39151343       1.73310464        1 
H       0.70883203      -0.85620169       1.80329880        1 
H      -3.43988373      -1.80533156      -0.14033589        1 
H      -2.86703336       1.79032643      -1.72316262        1 
H       3.77355878       1.10782841       0.51524139        1 
H       2.68220604       0.92405186       1.88353712        1 
H       3.62382476      -1.16845738      -0.07045551        1 
H       2.80490553      -1.47067332       1.46803522        1 
H      -2.76174930      -2.93379378      -1.35705279        1 
H      -2.69459804      -3.32849001       0.38994710        1 
H      -3.39404770       2.39316991      -0.13328670        1 
H      -3.87358394       0.75128949      -0.66594422        1 
C       1.35751421      -2.24472253      -1.06186502        6 
H       2.26974575      -2.36117660      -1.65202816        1 
H       1.24939334      -3.12229132      -0.41928098        1 
H       0.50185561      -2.20267504      -1.73061988        1 
C       1.95198328       2.53352952      -0.69589177        6 
H       2.93591740       2.48526699      -1.16889905        1 
H       1.21078200       2.80114439      -1.44437675        1 
H       1.96493226       3.32102403       0.06051696        1 
