35
Lattice="0.0 0.0 0.0 0.0 0.0 0.0 0.0 0.0 0.0" Properties=species:S:1:pos:R:3:Z:I:1 pbc="F F F"
C      -0.68764911       0.00987160      -0.67975442        6 
C       0.80399821      -0.46779816      -0.60484322        6 
C      -0.93656326       1.45167102      -0.26102752        6 
C       1.74168299       0.46934076       0.14503706        6 
O      -2.25516561       1.71160887      -0.15696014        8 
O      -0.09429402       2.30939600      -0.15929418        8 
O       2.54040575       1.12006736      -0.72888718        8 
O       1.83552087       0.57624923       1.34139698        8 
C       3.39012794       2.12887891      -0.15641311        6 
C      -2.61221663       3.07376518       0.14556598        6 
C      -1.42868861      -1.15832800       0.09854143        6 
C      -1.51370273      -2.34709715      -0.89591427        6 
C      -0.03619315      -2.80993242      -0.95361912        6 
C       0.64151254      -1.86257063       0.07833969        6 
O      -0.41992566      -1.61004488       1.01206689        8 
H      -1.02073185      -0.00479602      -1.72162914        1 
H       1.21029233      -0.57352010      -1.61044140        1 
H       4.06179029       1.69285947       0.58462276        1 
H      -2.26906011       3.74256016      -0.64520448        1 
H      -2.15424293      -3.12525108      -0.47643344        1 
H      -1.92744250      -2.05889615      -1.86438999        1 
H       0.06842994      -3.84522472      -0.62461572        1 
H       0.41165104      -2.72970651      -1.94624337        1 
H       3.95382952       2.54210061      -0.99030063        1 
H       2.77790216       2.89932103       0.31462619        1 
H      -2.16992223       3.38132773       1.09387560        1 
H      -3.69816571       3.07865231       0.20879133        1 
C       1.85325832      -2.44542093       0.77283005        6 
H       1.60515728      -3.42754790       1.18109656        1 
H       2.67353113      -2.56790594       0.05936189        1 
H       2.18371863      -1.79871190       1.58366476        1 
C      -2.70592842      -0.87644427       0.85887165        6 
H      -3.02208035      -1.79711355       1.35478270        1 
H      -2.55501636      -0.10824592       1.61644326        1 
H      -3.49906986      -0.54574819       0.18744135        1 
