35
Lattice="0.0 0.0 0.0 0.0 0.0 0.0 0.0 0.0 0.0" Properties=species:S:1:pos:R:3:Z:I:1 pbc="F F F"
C       0.40428386       0.78848023       0.66209196        6 
C       0.14259357      -0.76532178       0.56541718        6 
C      -0.62828247       1.74009346       0.06438302        6 
C      -1.18045769      -1.20035911      -0.03958465        6 
O      -1.87831247       1.24743116       0.15911640        8 
O      -0.39854016       2.85010189      -0.34645808        8 
O      -2.06149328      -1.49805508       0.94465313        8 
O      -1.41475802      -1.38501041      -1.20777921        8 
C      -3.36245397      -1.92304950       0.51016278        6 
C      -2.93819287       2.08326240      -0.34082418        6 
C       1.84857372       0.87800506       0.04249528        6 
C       2.81822413       0.23087744       1.07580356        6 
C       2.56612997      -1.28056529       0.85835406        6 
C       1.42582738      -1.25748099      -0.19238365        6 
O       1.77955703      -0.11891709      -0.99188763        8 
H       0.43531840       1.08065699       1.71634798        1 
H       0.13588562      -1.17092053       1.57699538        1 
H      -3.29303853      -2.84681994      -0.06695043        1 
H      -2.82939102       2.22388874      -1.41694234        1 
H       3.84662412       0.50442916       0.83537717        1 
H       2.61683618       0.56671290       2.09567466        1 
H       3.44220662      -1.77068670       0.42950251        1 
H       2.28998795      -1.81894525       1.76687905        1 
H      -3.93689326      -2.08313127       1.42020370        1 
H      -3.82815902      -1.15325676      -0.10756835        1 
H      -2.92560646       3.05361377       0.15641564        1 
H      -3.85797044       1.54758794      -0.11689909        1 
C       1.32804232      -2.50809895      -1.03928489        6 
H       2.30994340      -2.73407240      -1.46098236        1 
H       1.01636658      -3.35805719      -0.42486579        1 
H       0.61155868      -2.38234740      -1.84789398        1 
C       2.34873628       2.18750255      -0.52959608        6 
H       3.37737839       2.04599187      -0.87057536        1 
H       1.73852959       2.51854928      -1.36590263        1 
H       2.33511976       2.97275310       0.22885653        1 
