35
Lattice="0.0 0.0 0.0 0.0 0.0 0.0 0.0 0.0 0.0" Properties=species:S:1:pos:R:3:Z:I:1 pbc="F F F"
C      -0.82256917      -0.46495985      -0.60650357        6 
C       0.67039032       0.01211287      -0.67285524        6 
C      -1.77761001       0.48310826       0.10906319        6 
C       0.95498342       1.41938037      -0.17192172        6 
O      -2.40271505       1.26599508      -0.79916697        8 
O      -2.02716147       0.49947068       1.28681753        8 
O       2.27445174       1.69268711      -0.26571500        8 
O       0.14274208       2.24733173       0.15642727        8 
C       2.67623486       3.01983327       0.12160193        6 
C      -3.24916343       2.29193994      -0.25355574        6 
C      -0.67133781      -1.86327620       0.06868467        6 
C       0.00381042      -2.80656875      -0.97024901        6 
C       1.48364649      -2.35254404      -0.90937172        6 
C       1.40303081      -1.17258758       0.09327858        6 
O       0.39249339      -1.62190303       1.00468328        8 
H      -1.21084784      -0.56946205      -1.62018124        1 
H       1.01367018       0.02491470      -1.70976842        1 
H       2.43515786       3.19996175       1.17030640        1 
H      -2.65213524       2.97846991       0.34846019        1 
H      -0.10689982      -3.84384570      -0.65005228        1 
H      -0.44227810      -2.71554127      -1.96267380        1 
H       2.12135499      -3.13683078      -0.49680889        1 
H       1.89813211      -2.05715366      -1.87527247        1 
H       3.75226033       3.05194191      -0.03430009        1 
H       2.17421430       3.76619905      -0.49559725        1 
H      -4.03580126       1.85474376       0.36342948        1 
H      -3.67664090       2.80501674      -1.11264809        1 
C       2.67941576      -0.89214358       0.85503638        6 
H       2.99483591      -1.81152886       1.35343337        1 
H       3.47303299      -0.56117861       0.18467405        1 
H       2.52647863      -0.12397607       1.61362206        1 
C      -1.88316093      -2.45544755       0.75606979        6 
H      -1.63311993      -3.44428211       1.14693483        1 
H      -2.21484117      -1.82056615       1.57457700        1 
H      -2.70363848      -2.56753503       0.04096212        1 
