35
Lattice="0.0 0.0 0.0 0.0 0.0 0.0 0.0 0.0 0.0" Properties=species:S:1:pos:R:3:Z:I:1 pbc="F F F"
C      -0.56536521       0.51116862       0.71803246        6 
C       0.87997670      -0.07868324       0.87246728        6 
C      -1.63342444      -0.41266653       0.17191335        6 
C       0.94850467      -1.58289550       0.63578537        6 
O      -2.85603758       0.08043316       0.48069549        8 
O      -1.47850626      -1.43882101      -0.44032169        8 
O       1.35205679      -1.93778130      -0.58992682        8 
O       0.66634776      -2.37209606       1.50754317        8 
C       1.25150404      -3.33820935      -0.90375000        6 
C      -3.98050011      -0.66647266      -0.01935794        6 
C      -0.29581132       1.71857001      -0.27131622        6 
C       0.38437877       2.83309255       0.56165147        6 
C       1.80274745       2.24484924       0.76433108        6 
C       1.71460879       0.90031902      -0.01688747        6 
O       0.78696102       1.22277958      -1.06953576        8 
H      -0.94050723       0.89171933       1.66676069        1 
H       1.17842531       0.02339419       1.91668867        1 
H       0.20319796      -3.63813896      -0.88243911        1 
H      -3.96699139      -1.68388723       0.37385137        1 
H       0.41733068       3.75547245      -0.02136593        1 
H      -0.14663879       3.04197184       1.49234472        1 
H       2.56356828       2.88117401       0.30945981        1 
H       2.07267562       2.09912362       1.81200338        1 
H       1.65941599      -3.43914184      -1.90735239        1 
H       1.82118552      -3.93640539      -0.19153606        1 
H      -3.95959427      -0.70270160      -1.10998720        1 
H      -4.86151535      -0.13190228       0.32881363        1 
C       3.04139365       0.42805952      -0.57290512        6 
H       3.53549621       1.25304754      -1.09111330        1 
H       3.69236407       0.09887141       0.24241727        1 
H       2.90583100      -0.39963442      -1.26365783        1 
C      -1.43577444       2.17428618      -1.15579293        6 
H      -1.09051202       2.98684539      -1.79860549        1 
H      -1.79227010       1.36309263      -1.79450786        1 
H      -2.27105218       2.53258776      -0.55163643        1 
