35
Lattice="0.0 0.0 0.0 0.0 0.0 0.0 0.0 0.0 0.0" Properties=species:S:1:pos:R:3:Z:I:1 pbc="F F F"
C      -0.30463008       0.75761482      -0.87291659        6 
C      -0.48408506      -0.81118753      -0.79786190        6 
C       1.13194163       1.17153673      -0.56669892        6 
C       0.80127425      -1.59629568      -0.63275599        6 
O       1.30249757       1.83444001       0.58514789        8 
O       2.04640842       0.88362446      -1.30335244        8 
O       1.35982633      -1.42218816       0.58373587        8 
O       1.30562006      -2.25329558      -1.50854737        8 
C       2.65641476      -2.01877128       0.76734260        6 
C       2.66281613       2.15162274       0.93303561        6 
C      -1.47359483       1.21803440       0.05383235        6 
C      -2.80337466       0.84315460      -0.67666977        6 
C      -2.93276669      -0.66906074      -0.37256848        6 
C      -1.58065840      -0.94963277       0.32279348        6 
O      -1.40705455       0.24154137       1.10984284        8 
H      -0.46544503       1.08349059      -1.90238526        1 
H      -0.88343631      -1.16780229      -1.74628201        1 
H       3.35821298      -1.61510560       0.03608089        1 
H       3.11791275       2.78367292       0.16947115        1 
H      -3.63258236       1.41107880      -0.25245538        1 
H      -2.76101883       1.06806526      -1.74460903        1 
H      -3.74512642      -0.86266523       0.33057141        1 
H      -3.09343267      -1.28713187      -1.25814366        1 
H       2.95481413      -1.75565033       1.78010196        1 
H       2.59969683      -3.10237576       0.65395062        1 
H       3.24596565       1.23560326       1.03649035        1 
H       2.60130582       2.67669743       1.88357380        1 
C      -1.54367563      -2.18866394       1.18962871        6 
H      -2.38507898      -2.17895246       1.88602847        1 
H      -1.62312063      -3.08562875       0.56865201        1 
H      -0.61706589      -2.23745270       1.75975079        1 
C      -1.47318347       2.63131961       0.59928468        6 
H      -2.39544476       2.80300126       1.15894683        1 
H      -0.62282304       2.80760616       1.25117951        1 
H      -1.43776319       3.35042726      -0.22471554        1 
