35
Lattice="0.0 0.0 0.0 0.0 0.0 0.0 0.0 0.0 0.0" Properties=species:S:1:pos:R:3:Z:I:1 pbc="F F F"
C       0.48064363       0.85698932       0.61444589        6 
C       0.05290260      -0.64239497       0.67591762        6 
C      -0.60236276       1.82698960       0.17152903        6 
C      -1.16328942      -0.97028488      -0.16401794        6 
O      -1.76437218       1.51712216       0.79723689        8 
O      -0.46740153       2.80820872      -0.51170590        8 
O      -1.90932360      -1.92457908       0.43814072        8 
O      -1.42547688      -0.50914051      -1.24660542        8 
C      -3.06212000      -2.37509451      -0.29651009        6 
C      -2.89841963       2.33828669       0.46801964        6 
C       1.83072337       0.78440441      -0.18674808        6 
C       2.90238304       0.32068913       0.83606458        6 
C       2.48989494      -1.15532556       1.07651113        6 
C       1.32494060      -1.32965967       0.06241263        6 
O       1.66797970      -0.40864450      -0.97920498        8 
H       0.69436757       1.19060523       1.63548822        1 
H      -0.13167333      -0.98296613       1.69307100        1 
H      -2.76045168      -2.82656870      -1.24311365        1 
H      -3.11903688       2.26040584      -0.59764044        1 
H       3.88981425       0.38339327       0.37550095        1 
H       2.91201041       0.92908817       1.74261238        1 
H       3.30024371      -1.84344671       0.82974714        1 
H       2.17716435      -1.36174463       2.10237741        1 
H      -3.54454714      -3.11163865       0.34229998        1 
H      -3.73509731      -1.54021613      -0.49750031        1 
H      -2.70550917       3.38115029       0.72360672        1 
H      -3.72270221       1.94526801       1.05956188        1 
C       1.14420752      -2.72805364      -0.48723663        6 
H       2.09056594      -3.08878095      -0.89573159        1 
H       0.82350701      -3.40996121       0.30406212        1 
H       0.40125224      -2.74513880      -1.28706679        1 
C       2.24267081       1.94275915      -1.06685987        6 
H       3.21309734       1.71654967      -1.51558108        1 
H       1.51399899       2.11743701      -1.85544541        1 
H       2.33010204       2.86018493      -0.48157370        1 
