35
Lattice="0.0 0.0 0.0 0.0 0.0 0.0 0.0 0.0 0.0" Properties=species:S:1:pos:R:3:Z:I:1 pbc="F F F"
C       0.39940048       0.92628476       0.74570825        6 
C       0.28193375      -0.64288464       0.78367107        6 
C      -0.70394056       1.72726529       0.05661872        6 
C      -1.12944897      -1.20710652       0.84023525        6 
O      -1.82928794       1.02620230      -0.15233214        8 
O      -0.58434078       2.87927878      -0.28407032        8 
O      -1.53778460      -1.82703278      -0.27897548        8 
O      -1.80470459      -1.13014590       1.83941219        8 
C      -2.87559217      -2.35202347      -0.25196789        6 
C      -2.90737254       1.71964019      -0.80640663        6 
C       1.76175101       1.05331907      -0.03387715        6 
C       2.87126533       0.38186201       0.83611341        6 
C       2.69352653      -1.11750636       0.49978323        6 
C       1.35950177      -1.08780510      -0.28234776        6 
O       1.53865702       0.09387240      -1.08568500        8 
H       0.47866793       1.33485847       1.75543218        1 
H       0.65746278      -0.93816124       1.76595596        1 
H      -3.59319478      -1.55044496      -0.07074097        1 
H      -2.60976395       2.01570336      -1.81323504        1 
H       3.85440309       0.74973916       0.54046656        1 
H       2.74313668       0.60670170       1.89744395        1 
H       3.48856303      -1.47060902      -0.16005609        1 
H       2.66178968      -1.76839464       1.37579471        1 
H      -3.03280454      -2.79523105      -1.23309229        1 
H      -2.97824861      -3.10448475       0.53141992        1 
H      -3.19097133       2.60537841      -0.23724239        1 
H      -3.72805258       1.00682744      -0.84276163        1 
C       1.11553695      -2.29092680      -1.16597101        6 
H       2.00558257      -2.46804185      -1.77473851        1 
H       0.92612855      -3.18179563      -0.56249864        1 
H       0.26134707      -2.13397994      -1.82020151        1 
C       2.18429288       2.38547395      -0.61572195        6 
H       3.15596281       2.25788112      -1.09944548        1 
H       1.47083508       2.75975677      -1.34472625        1 
H       2.28358994       3.13340918       0.17412420        1 
