35
Lattice="0.0 0.0 0.0 0.0 0.0 0.0 0.0 0.0 0.0" Properties=species:S:1:pos:R:3:Z:I:1 pbc="F F F"
C       0.25298304       0.85175609       0.60027300        6 
C       0.28083185      -0.72832700       0.57164021        6 
C      -0.81343522       1.45266359      -0.31466571        6 
C      -1.00748912      -1.39720186       0.13513912        6 
O      -2.04127492       1.26933782       0.22588288        8 
O      -0.64503566       2.04039901      -1.35144169        8 
O      -1.88380231      -1.39618496       1.16461715        8 
O      -1.22405810      -1.96244794      -0.90835544        8 
C      -3.17953989      -1.95147006       0.89006852        6 
C      -3.15114020       1.74363845      -0.55849522        6 
C       1.71248229       1.14734554       0.14392411        6 
C       2.67266535       0.57407740       1.23537962        6 
C       2.72843487      -0.92932101       0.86864824        6 
C       1.61882814      -1.01303929      -0.20707687        6 
O       1.85134522       0.20593823      -0.93535299        8 
H       0.04399128       1.20671163       1.61061726        1 
H       0.40240050      -1.05868505       1.60492909        1 
H      -3.09688319      -3.00108843       0.60408047        1 
H      -3.18130082       1.22855019      -1.52000628        1 
H       3.65217050       1.04758246       1.15831707        1 
H       2.29504973       0.75749593       2.24447382        1 
H       3.68548301      -1.18996595       0.41255371        1 
H       2.55886080      -1.59938962       1.71422137        1 
H      -3.74197954      -1.84911427       1.81566670        1 
H      -3.66619018      -1.39822026       0.08471573        1 
H      -3.07002198       2.81805393      -0.72878267        1 
H      -4.03801552       1.51538579       0.02896280        1 
C       1.69602791      -2.21037489      -1.12706208        6 
H       2.70376673      -2.27488860      -1.54430140        1 
H       1.49130556      -3.13107022      -0.57429822        1 
H       0.97429803      -2.13514479      -1.93745198        1 
C       2.05764343       2.55515405      -0.29496195        6 
H       3.11554543       2.60068279      -0.56381980        1 
H       1.45812267       2.86056840      -1.14794665        1 
H       1.88620440       3.25576414       0.52818433        1 
