35
Lattice="0.0 0.0 0.0 0.0 0.0 0.0 0.0 0.0 0.0" Properties=species:S:1:pos:R:3:Z:I:1 pbc="F F F"
C       0.25842994       0.69695756       0.59614150        6 
C       0.17777109      -0.85984135       0.73178728        6 
C      -1.02825197       1.47378672       0.40057426        6 
C      -0.81804085      -1.54244955      -0.22043177        6 
O      -1.86689226       1.19329835       1.42720650        8 
O      -1.24290092       2.34684675      -0.40206191        8 
O      -1.91826116      -0.79289754      -0.43479422        8 
O      -0.65987124      -2.60585467      -0.76501183        8 
C      -2.87563060      -1.31823932      -1.37300953        6 
C      -3.14228128       1.85053573       1.39743277        6 
C       1.50570897       0.89224525      -0.34782975        6 
C       2.70252242       0.97461137       0.62337008        6 
C       2.64101450      -0.43837223       1.25928299        6 
C       1.65259737      -1.19772397       0.30863247        6 
O       1.71376306      -0.42320850      -0.90711822        8 
H       0.54929759       1.05766333       1.58827105        1 
H      -0.06569686      -1.16538205       1.75192086        1 
H      -3.27067410      -2.27195999      -1.02048263        1 
H      -3.68942986       1.57579126       0.49336432        1 
H       3.62362901       1.11357143       0.05353710        1 
H       2.61391907       1.79088320       1.34389513        1 
H       3.61467884      -0.92830272       1.25491379        1 
H       2.28381144      -0.43160247       2.29230956        1 
H      -3.66432768      -0.57110099      -1.42791240        1 
H      -2.41023293      -1.45834524      -2.34924282        1 
H      -3.02196637       2.93472143       1.42686573        1 
H      -3.67166224       1.50011822       2.28105573        1 
C       2.06736626      -2.63647695       0.07597498        6 
H       3.12474404      -2.65727179      -0.19926157        1 
H       1.94416506      -3.21231593       0.99806245        1 
H       1.48190535      -3.11024164      -0.70473555        1 
C       1.45790460       1.92169938      -1.45181425        6 
H       2.39943691       1.88639734      -2.00537260        1 
H       0.63261109       1.72684259      -2.13527206        1 
H       1.32226178       2.92396189      -1.04321654        1 
