35
Lattice="0.0 0.0 0.0 0.0 0.0 0.0 0.0 0.0 0.0" Properties=species:S:1:pos:R:3:Z:I:1 pbc="F F F"
C      -0.37001376       0.70505858      -0.89494097        6 
C      -0.36388658      -0.85362579      -0.73715010        6 
C       0.91593620       1.45024874      -0.56150237        6 
C       0.91212190      -1.64329745      -0.52192710        6 
O       1.14600319       1.58744829       0.75256305        8 
O       1.62828971       1.92814624      -1.41478975        8 
O       1.92819703      -0.95493777       0.01777693        8 
O       0.98506203      -2.81911226      -0.79860839        8 
C       3.14737365      -1.68950005       0.23683652        6 
C       2.37030338       2.24771988       1.10632018        6 
C      -1.59892175       1.07062278       0.00578846        6 
C      -2.87690384       0.49697474      -0.68261578        6 
C      -2.82149604      -0.99896782      -0.28044830        6 
C      -1.44214887      -1.06667846       0.41443792        6 
O      -1.41268530       0.18140022       1.11875793        8 
H      -0.55890332       0.96193058      -1.93712952        1 
H      -0.76285369      -1.29648641      -1.64983986        1 
H       3.53652790      -2.06854840      -0.70886356        1 
H       2.37904506       3.27284943       0.73153512        1 
H      -3.76636074       0.98718114      -0.28398416        1 
H      -2.86558905       0.65723570      -1.76267624        1 
H      -3.60027299      -1.24330115       0.44475391        1 
H      -2.90529478      -1.69059017      -1.12047740        1 
H       3.83848100      -0.97510642       0.67802376        1 
H       2.97003669      -2.52457188       0.91553181        1 
H       3.22321898       1.71017755       0.68847625        1 
H       2.40260621       2.23562367       2.19362684        1 
C      -1.22634402      -2.22346155       1.36112846        6 
H      -2.02691401      -2.24391976       2.10395526        1 
H      -1.22288496      -3.16916134       0.81665594        1 
H      -0.27399497      -2.12620780       1.88700514        1 
C      -1.73303093       2.51056801       0.45283980        6 
H      -2.63074870       2.62536097       1.06426971        1 
H      -0.87157709       2.82623026       1.03840510        1 
H      -1.82771179       3.16443669      -0.41885387        1 
