35
Lattice="0.0 0.0 0.0 0.0 0.0 0.0 0.0 0.0 0.0" Properties=species:S:1:pos:R:3:Z:I:1 pbc="F F F"
C      -0.36583638       0.60123586      -0.86323850        6 
C      -0.16056330      -0.92409713      -0.57851142        6 
C       0.64897325       1.56508454      -0.27745645        6 
C       1.24995970      -1.31747130      -0.17312916        6 
O       1.21354055       1.10553139       0.85190620        8 
O       0.85709584       2.66705707      -0.72752285        8 
O       2.11762246      -0.82931176      -1.09519105        8 
O       1.59217018      -2.02049513       0.74144106        8 
C       3.50877057      -1.10571752      -0.86240440        6 
C       2.14674119       1.97887244       1.50995358        6 
C      -1.76727439       0.82468378      -0.17956891        6 
C      -2.82679199       0.05799681      -1.02145775        6 
C      -2.60313153      -1.40473851      -0.55945276        6 
C      -1.36754106      -1.25676432       0.36840375        6 
O      -1.64221933       0.01236986       0.99514870        8 
H      -0.40949949       0.82428805      -1.92790643        1 
H      -0.29923563      -1.45998204      -1.52313304        1 
H       3.69160819      -2.18129643      -0.85348459        1 
H       1.65675756       2.90841936       1.80270462        1 
H      -3.82815103       0.41010619      -0.76755798        1 
H      -2.68398092       0.20564374      -2.09386895        1 
H      -3.44886514      -1.76611259       0.02836370        1 
H      -2.43509265      -2.10717138      -1.37845689        1 
H       4.04042465      -0.63301053      -1.68538423        1 
H       3.82395491      -0.68155898       0.09258540        1 
H       2.98404655       2.20829142       0.84834268        1 
H       2.48522613       1.42959331       2.38532080        1 
C      -1.22117078      -2.33913559       1.41399787        6 
H      -2.16476318      -2.43918158       1.95611505        1 
H      -0.98514216      -3.29671520       0.94442723        1 
H      -0.42324019      -2.10485170       2.11459011        1 
C      -2.13901897       2.24508493       0.18366484        6 
H      -3.12644476       2.25558668       0.64979840        1 
H      -1.42256008       2.67666804       0.88395028        1 
H      -2.16143948       2.87412266      -0.70870537        1 
