35
Lattice="0.0 0.0 0.0 0.0 0.0 0.0 0.0 0.0 0.0" Properties=species:S:1:pos:R:3:Z:I:1 pbc="F F F"
C      -0.35792156       0.60569262      -0.86645640        6 
C      -0.19146153      -0.92600004      -0.59256735        6 
C       0.72261434       1.51543533      -0.31370449        6 
C       1.20316212      -1.37365851      -0.18837016        6 
O       1.11421766       1.15615153       0.92298547        8 
O       1.14950654       2.48386542      -0.89543094        8 
O       2.11522348      -0.76551341      -0.98388950        8 
O       1.49547631      -2.22319184       0.61331602        8 
C       3.49060332      -1.12281899      -0.76563395        6 
C       2.13213546       1.96739164       1.53240743        6 
C      -1.73655362       0.87248668      -0.16491281        6 
C      -2.83384168       0.16188752      -1.00562273        6 
C      -2.65440164      -1.31743866      -0.57610378        6 
C      -1.41149285      -1.22926367       0.35090368        6 
O      -1.63770938       0.03894779       0.99731183        8 
H      -0.40901011       0.82865708      -1.93057694        1 
H      -0.34283552      -1.45643856      -1.53901005        1 
H       3.64375651      -2.18678085      -0.95290095        1 
H       1.77249603       2.98738912       1.67697377        1 
H      -3.81871268       0.54270127      -0.72926916        1 
H      -2.70132875       0.32643601      -2.07697853        1 
H      -3.50970753      -1.66487445       0.00622387        1 
H      -2.51278984      -2.00587435      -1.41197223        1 
H       4.06050750      -0.52190471      -1.47071289        1 
H       3.78430237      -0.89454935       0.26027249        1 
H       3.02642321       1.99004342       0.90713511        1 
H       2.34180993       1.49580724       2.48969626        1 
C      -1.30447509      -2.32966819       1.38243350        6 
H      -2.24813005      -2.39339124       1.92977275        1 
H      -1.11133094      -3.29107395       0.90225842        1 
H      -0.49396446      -2.13686174       2.08166162        1 
C      -2.03620422       2.30541467       0.21580796        6 
H      -3.01032402       2.36152088       0.70601117        1 
H      -1.28412764       2.69753965       0.90265132        1 
H      -2.05333507       2.93949493      -0.67370503        1 
