35
Lattice="0.0 0.0 0.0 0.0 0.0 0.0 0.0 0.0 0.0" Properties=species:S:1:pos:R:3:Z:I:1 pbc="F F F"
C       0.28207563       0.99626987       0.72074768        6 
C       0.34941357      -0.57448179       0.79354682        6 
C      -0.88776066       1.62679702      -0.03986565        6 
C      -0.98065259      -1.30775747       0.85746550        6 
O      -1.98773418       0.85539938      -0.04054417        8 
O      -0.85966392       2.71032860      -0.57001730        8 
O      -1.30835025      -1.97430389      -0.26290570        8 
O      -1.67014345      -1.29686230       1.84898568        8 
C      -2.57553734      -2.65284566      -0.24184647        6 
C      -3.14295540       1.38293778      -0.71687617        6 
C       1.65227194       1.26526636       0.00257721        6 
C       2.79183200       0.70931415       0.91828262        6 
C       2.80098003      -0.79602649       0.56257949        6 
C       1.49029258      -0.90704266      -0.25013328        6 
O       1.56769618       0.28623888      -1.05334938        8 
H       0.25208532       1.42640587       1.72527793        1 
H       0.74840100      -0.79815473       1.78545556        1 
H      -3.38398372      -1.93959253      -0.07470883        1 
H      -2.93427245       1.50895234      -1.78022504        1 
H       3.73910131       1.18997700       0.67311211        1 
H       2.59005048       0.90236028       1.97457209        1 
H       3.64585486      -1.04517035      -0.08272960        1 
H       2.82337365      -1.45895843       1.42984306        1 
H      -2.67036399      -3.11987096      -1.21994109        1 
H      -2.59607941      -3.40591055       0.54746193        1 
H      -3.43083470       2.34347053      -0.28832406        1 
H      -3.92751115       0.64535888      -0.56355242        1 
C       1.38767188      -2.12858148      -1.13537757        6 
H       2.29865444      -2.20994851      -1.73349759        1 
H       1.28785979      -3.03442188      -0.53275259        1 
H       0.52874443      -2.06461523      -1.79904427        1 
C       1.96535628       2.63806381      -0.55660844        6 
H       2.98159303       2.62727551      -0.95829364        1 
H       1.27282886       2.92893166      -1.34061435        1 
H       1.91307690       3.38991699       0.23484989        1 
