35
Lattice="0.0 0.0 0.0 0.0 0.0 0.0 0.0 0.0 0.0" Properties=species:S:1:pos:R:3:Z:I:1 pbc="F F F"
C      -0.55443695       0.54702364       0.60890716        6 
C       0.78691201      -0.17492833       0.93819774        6 
C      -1.77704251      -0.28563300       0.28266022        6 
C       0.95986830      -1.62257796       0.50350071        6 
O      -2.87463003       0.33590325       0.78849916        8 
O      -1.84733339      -1.30519337      -0.35448893        8 
O       0.83028115      -1.80706587      -0.81264474        8 
O       1.29283556      -2.49487490       1.27553955        8 
C       0.92769287      -3.16155717      -1.28048409        6 
C      -4.14041664      -0.28524582       0.50013302        6 
C      -0.11697752       1.58170197      -0.51333156        6 
C       0.45350155       2.79914894       0.25013105        6 
C       1.73047956       2.17481620       0.87606095        6 
C       1.78508424       0.77651964       0.18508488        6 
O       1.08105749       1.00503370      -1.04457773        8 
H      -0.84707364       1.12003496       1.48812716        1 
H       0.97130502      -0.17616769       2.01140755        1 
H       0.13440824      -3.76674651      -0.83925893        1 
H      -4.17670238      -1.29160489       0.92015634        1 
H       0.70723232       3.58467797      -0.46491810        1 
H      -0.24330595       3.21251653       0.98172862        1 
H       2.62341705       2.75198427       0.63094971        1 
H       1.67847494       2.08902275       1.96365394        1 
H       0.80397567      -3.10145448      -2.35937824        1 
H       1.89803868      -3.59015167      -1.02441055        1 
H      -4.30267520      -0.34122420      -0.57751594        1 
H      -4.88832388       0.35140294       0.96784987        1 
C       3.17747171       0.24168890      -0.06642800        6 
H       3.76859009       0.98463103      -0.60630889        1 
H       3.67440878       0.02602561       0.88278966        1 
H       3.14782844      -0.67203157      -0.66059355        1 
C      -1.11356036       1.86671540      -1.61229876        6 
H      -0.67027299       2.54127068      -2.34801932        1 
H      -1.40398467       0.94447812      -2.11987583        1 
H      -2.00883158       2.34073569      -1.20265196        1 
