35
Lattice="0.0 0.0 0.0 0.0 0.0 0.0 0.0 0.0 0.0" Properties=species:S:1:pos:R:3:Z:I:1 pbc="F F F"
C      -0.38518812       0.64414221      -0.81570453        6 
C      -0.08661266      -0.86301007      -0.52137878        6 
C       0.46445380       1.68264873      -0.09141109        6 
C       1.35452008      -1.22043825      -0.20401623        6 
O       1.41110624       1.14579703       0.69488366        8 
O       0.25443213       2.87099643      -0.14617356        8 
O       2.13378133      -0.82941990      -1.24382111        8 
O       1.77815989      -1.83546120       0.73974297        8 
C       3.54205462      -1.07277885      -1.10007934        6 
C       2.18749669       2.05707422       1.49163620        6 
C      -1.86345356       0.71224758      -0.26767248        6 
C      -2.73543183      -0.27306279      -1.10988968        6 
C      -2.43322048      -1.63659780      -0.43999391        6 
C      -1.24295590      -1.25806289       0.47024959        6 
O      -1.69173644       0.01654541       0.98007976        8 
H      -0.33706276       0.87883261      -1.87996409        1 
H      -0.25463832      -1.39907106      -1.46078797        1 
H       3.73855197      -2.13751327      -0.96587229        1 
H       1.53323066       2.65423523       2.12753657        1 
H      -3.78938248      -0.00535600      -1.02851203        1 
H      -2.46964989      -0.24228917      -2.16941098        1 
H      -3.26889083      -1.96636800       0.18034673        1 
H      -2.19314468      -2.43406584      -1.14664578        1 
H       3.99552501      -0.71276320      -2.02124642        1 
H       3.93458566      -0.52446689      -0.24161979        1 
H       2.77104858       2.71911022       0.84981127        1 
H       2.83912019       1.42705791       2.09302141        1 
C      -0.96471358      -2.21022784       1.60981321        6 
H      -1.89091003      -2.37578863       2.16631670        1 
H      -0.60612062      -3.16920422       1.23110780        1 
H      -0.20640103      -1.81336537       2.28162482        1 
C      -2.51299794       2.06122312      -0.05013062        6 
H      -3.52871743       1.90634137       0.32134923        1 
H      -1.96480394       2.66957072       0.66544012        1 
H      -2.56374605       2.61307714      -0.99119814        1 
