35
Lattice="0.0 0.0 0.0 0.0 0.0 0.0 0.0 0.0 0.0" Properties=species:S:1:pos:R:3:Z:I:1 pbc="F F F"
C      -0.79620416       0.16962193      -0.94885814        6 
C       0.56976772      -0.46999937      -0.59594602        6 
C      -1.16451913       1.54340336      -0.40941321        6 
C       1.80656616       0.40167612      -0.48407236        6 
O      -0.57661567       1.84734337       0.74914238        8 
O      -2.04735287       2.20835749      -0.90688041        8 
O       2.90283476      -0.39836557      -0.57932099        8 
O       1.88742501       1.59405615      -0.34701922        8 
C       4.17561679       0.26127339      -0.46167545        6 
C      -0.96041784       3.09377178       1.35027314        6 
C      -1.73454652      -0.87964366      -0.21773684        6 
C      -1.49063880      -2.29216160      -0.84123958        6 
C      -0.21978751      -2.77026328      -0.08804762        6 
C       0.20789019      -1.45595603       0.59774606        6 
O      -1.06490253      -0.97155154       1.05051680        8 
H      -0.97952614       0.19347288      -2.02238985        1 
H       0.82984762      -1.11265154      -1.44095754        1 
H       4.26435065       0.75150593       0.50929956        1 
H      -2.02494229       3.09044822       1.59109150        1 
H      -2.34620867      -2.94097601      -0.64962651        1 
H      -1.35450722      -2.23835906      -1.92386618        1 
H      -0.46519885      -3.51085169       0.67637212        1 
H       0.55095824      -3.18730461      -0.73930397        1 
H       4.92060741      -0.52508795      -0.56271362        1 
H       4.29467723       1.00600279      -1.25008897        1 
H      -0.74557866       3.92290689       0.67464032        1 
H      -0.36187974       3.17326899       2.25477765        1 
C       1.17858323      -1.55466340       1.74914203        6 
H       0.76118721      -2.20129553       2.52442326        1 
H       2.12868652      -1.97384437       1.41436349        1 
H       1.36308808      -0.56939642       2.18317662        1 
C      -3.19074530      -0.51540223      -0.03717253        6 
H      -3.69935184      -1.31617156       0.50422648        1 
H      -3.31028601       0.41233792       0.52195924        1 
H      -3.67182993      -0.38622212      -1.00920688        1 
