35
Lattice="0.0 0.0 0.0 0.0 0.0 0.0 0.0 0.0 0.0" Properties=species:S:1:pos:R:3:Z:I:1 pbc="F F F"
C      -0.38690267       0.78989724      -0.86183070        6 
C      -0.41582602      -0.79196769      -0.82363389        6 
C       0.99082580       1.35509829      -0.54482680        6 
C       0.95896142      -1.42918446      -0.72703116        6 
O       1.20191209       1.59552035       0.75930100        8 
O       1.83761667       1.51179380      -1.39258734        8 
O       1.43589968      -1.49018315       0.53188479        8 
O       1.59777598      -1.76677013      -1.69333425        8 
C       2.77866266      -1.99044806       0.67153827        6 
C       2.53007589       2.01709756       1.11492650        6 
C      -1.56741639       1.11760441       0.10771585        6 
C      -2.88042524       0.68243622      -0.60980478        6 
C      -2.86943158      -0.85213259      -0.40694320        6 
C      -1.49725531      -1.05933639       0.28526425        6 
O      -1.41475489       0.10765949       1.12084794        8 
H      -0.59503831       1.12943431      -1.87617538        1 
H      -0.78607740      -1.14688700      -1.78537940        1 
H       3.46899817      -1.39445433       0.07288480        1 
H       2.78250224       2.95545219       0.61897840        1 
H      -3.73856646       1.14532281      -0.11982351        1 
H      -2.89539263       0.98396931      -1.65944378        1 
H      -3.66572254      -1.16779099       0.26980127        1 
H      -2.96650069      -1.42125086      -1.33371094        1 
H       3.00871448      -1.90552188       1.73134519        1 
H       2.83394367      -3.03146992       0.34888978        1 
H       3.25707492       1.25553101       0.82845292        1 
H       2.51227254       2.14312746       2.19508627        1 
C      -1.38199823      -2.32753038       1.10153807        6 
H      -2.22941909      -2.40112603       1.78681927        1 
H      -1.39745803      -3.20186958       0.44414120        1 
H      -0.45921394      -2.33917875       1.67764499        1 
C      -1.63166613       2.50767900       0.70451093        6 
H      -2.50802783       2.58591905       1.35189722        1 
H      -0.74296583       2.73411746       1.28866993        1 
H      -1.73145780       3.25062712      -0.09255192        1 
