35
Lattice="0.0 0.0 0.0 0.0 0.0 0.0 0.0 0.0 0.0" Properties=species:S:1:pos:R:3:Z:I:1 pbc="F F F"
C      -0.06600712       0.76158028       0.59154059        6 
C       0.37075099      -0.74026082       0.65349745        6 
C      -1.43063226       1.09907849       0.02872708        6 
C      -0.45238620      -1.73805326      -0.14612945        6 
O      -2.04435366       1.99586848       0.84860247        8 
O      -1.92831694       0.70791422      -0.99370468        8 
O      -1.03297856      -2.62906914       0.70413454        8 
O      -0.60218424      -1.77687409      -1.33612107        8 
C      -1.86107248      -3.62871414       0.08279543        6 
C      -3.33140060       2.46322422       0.40691773        6 
C       1.13469862       1.41758857      -0.20713454        6 
C       2.26773514       1.62668430       0.82650203        6 
C       2.69000882       0.16046636       1.10737880        6 
C       1.82825381      -0.62765880       0.07560816        6 
O       1.64502927       0.32676483      -0.97917782        8 
H      -0.06845781       1.15812968       1.60583528        1 
H       0.38297834      -1.08346594       1.68667469        1 
H      -1.26803756      -4.25632298      -0.58491212        1 
H      -4.02444385       1.62768565       0.29697974        1 
H       3.07947820       2.19046998       0.36210431        1 
H       1.93918970       2.17268094       1.71258407        1 
H       3.75067723       0.00315716       0.90527829        1 
H       2.49650156      -0.15872113       2.13405816        1 
H      -2.26757051      -4.21978598       0.90089342        1 
H      -2.66158290      -3.15700451      -0.48902451        1 
H      -3.24239225       2.98027064      -0.55012532        1 
H      -3.67444340       3.14641353       1.18101075        1 
C       2.46026360      -1.90124843      -0.44189094        6 
H       3.45770784      -1.68570406      -0.83093064        1 
H       2.55879036      -2.63023656       0.36780444        1 
H       1.86344520      -2.33738517      -1.24251981        1 
C       0.80367200       2.59915013      -1.08924779        6 
H       1.70594616       2.94574286      -1.59739682        1 
H       0.06443509       2.32393972      -1.84320863        1 
H       0.40803055       3.42249055      -0.48830429        1 
