35
Lattice="0.0 0.0 0.0 0.0 0.0 0.0 0.0 0.0 0.0" Properties=species:S:1:pos:R:3:Z:I:1 pbc="F F F"
C      -0.72901303       0.60841862      -0.84904203        6 
C       0.07323982      -0.72298717      -0.72967176        6 
C      -0.11965264       1.82856630      -0.17365318        6 
C       1.57890206      -0.53291378      -0.81630217        6 
O       0.93983337       1.53541466       0.60039213        8 
O      -0.60472734       2.93307666      -0.23771803        8 
O       2.28823871      -1.25162936       0.06815971        8 
O       2.08687627       0.14746059      -1.67630107        8 
C       3.71941714      -1.13036107      -0.03029738        6 
C       1.52823478       2.63000013       1.32290433        6 
C      -2.02552166       0.19151818      -0.05879030        6 
C      -2.68454668      -1.01095516      -0.80478355        6 
C      -1.85459189      -2.21281145      -0.28520187        6 
C      -0.69526021      -1.47965961       0.42996929        6 
O      -1.42370534      -0.42545505       1.09218355        8 
H      -0.94777150       0.88381466      -1.88021158        1 
H      -0.11600019      -1.28382164      -1.65175623        1 
H       4.02109527      -0.09105368       0.10676408        1 
H       0.80594812       3.05398332       2.02182736        1 
H      -3.73734780      -1.09520864      -0.53218028        1 
H      -2.63430876      -0.88908911      -1.88939859        1 
H      -2.41762737      -2.79222012       0.44940222        1 
H      -1.51631428      -2.89037527      -1.07213696        1 
H       4.11715003      -1.75575857       0.76607147        1 
H       4.06716857      -1.47831370      -1.00403917        1 
H       1.86316489       3.40425517       0.63138938        1 
H       2.37261506       2.20125677       1.85825494        1 
C       0.05841630      -2.29723753       1.45286065        6 
H      -0.65933182      -2.72087876       2.15974402        1 
H       0.60540010      -3.11148921       0.97477800        1 
H       0.77231155      -1.68234540       1.99801542        1 
C      -2.99857013       1.27332801       0.35191060        6 
H      -3.82206781       0.82034275       0.90889660        1 
H      -2.52685274       2.03099145       0.97522821        1 
H      -3.40458203       1.77075312      -0.53181264        1 
