35
Lattice="0.0 0.0 0.0 0.0 0.0 0.0 0.0 0.0 0.0" Properties=species:S:1:pos:R:3:Z:I:1 pbc="F F F"
C      -0.17335969       0.79328985      -0.83622237        6 
C      -0.59344478      -0.72232964      -0.82645963        6 
C       1.33424897       0.96460154      -0.69507429        6 
C       0.47022623      -1.73531608      -0.45568253        6 
O       1.73954503       1.64911019       0.38211961        8 
O       2.09619465       0.51678975      -1.52086375        8 
O       1.18531584      -1.37078417       0.62611455        8 
O       0.62794128      -2.78119192      -1.03720084        8 
C       2.23726635      -2.27007280       1.01791522        6 
C       3.16436515       1.77559205       0.54305802        6 
C      -1.19682993       1.40632253       0.17944211        6 
C      -2.56988095       1.43662697      -0.55836683        6 
C      -2.99328457      -0.05271311      -0.52252473        6 
C      -1.78616456      -0.69951791       0.20118797        6 
O      -1.38746917       0.33024634       1.11754720        8 
H      -0.37151406       1.19071765      -1.83435031        1 
H      -0.94413005      -1.03801606      -1.80703112        1 
H       2.97535408      -2.35314521       0.21844395        1 
H       3.60225197       2.29458112      -0.31047918        1 
H      -3.26871367       2.05949958       0.00203253        1 
H      -2.48986954       1.84721548      -1.56689050        1 
H      -3.89604260      -0.19508377       0.07490634        1 
H      -3.17057558      -0.48768511      -1.50785142        1 
H       2.67882006      -1.82776638       1.90828057        1 
H       1.83365821      -3.25887555       1.23981695        1 
H       3.62011001       0.78880442       0.63573077        1 
H       3.30185360       2.34992058       1.45652771        1 
C      -2.07802204      -1.99224265       0.92970307        6 
H      -2.91164921      -1.84619040       1.61962145        1 
H      -2.34474038      -2.77872365       0.21956916        1 
H      -1.21046567      -2.32192731       1.50332219        1 
C      -0.86733841       2.69575629       0.90171126        6 
H      -1.73060171       3.00485689       1.49558583        1 
H      -0.00891987       2.57390098       1.55604913        1 
H      -0.64485467       3.48869113       0.18231954        1 
