35
Lattice="0.0 0.0 0.0 0.0 0.0 0.0 0.0 0.0 0.0" Properties=species:S:1:pos:R:3:Z:I:1 pbc="F F F"
C      -0.49996225       0.77188979      -0.79372396        6 
C      -0.26150536      -0.78188621      -0.86073733        6 
C       0.62482198       1.73941372      -0.47691792        6 
C       1.17854559      -1.22951552      -0.64888331        6 
O       1.65744968       1.20471951       0.19071433        8 
O       0.54450028       2.91806982      -0.73653297        8 
O       1.48062647      -1.56468412       0.61378961        8 
O       1.96785600      -1.30095845      -1.56250196        8 
C       2.84957384      -1.92702689       0.85370763        6 
C       2.71956482       2.10702415       0.55156119        6 
C      -1.65092640       0.85564074       0.30081904        6 
C      -2.96012661       0.44092487      -0.41116886        6 
C      -2.73992777      -1.08030349      -0.59629642        6 
C      -1.36945574      -1.30300657       0.11298259        6 
O      -1.37859894      -0.28380800       1.12772559        8 
H      -0.89288854       1.12941739      -1.74442920        1 
H      -0.47224746      -1.11228020      -1.87870316        1 
H       3.51197305      -1.11423773       0.55258555        1 
H       2.33188369       2.92750709       1.15614080        1 
H      -3.80889567       0.64221192       0.24522114        1 
H      -3.12010853       0.98297590      -1.34507683        1 
H      -3.51244829      -1.65887498      -0.08758202        1 
H      -2.72292913      -1.39674836      -1.64125968        1 
H       2.91873706      -2.10523447       1.92469884        1 
H       3.11394147      -2.82664510       0.29533855        1 
H       3.19368942       2.50963355      -0.34451768        1 
H       3.42487017       1.50813105       1.12307774        1 
C      -1.21951242      -2.68552648       0.71326925        6 
H      -2.10585383      -2.92476315       1.30491533        1 
H      -1.12993407      -3.43119123      -0.08253539        1 
H      -0.34055416      -2.74835092       1.34916320        1 
C      -1.73636342       2.11066004       1.13901748        6 
H      -2.56504529       2.01724515       1.84402111        1 
H      -0.81831175       2.26952037       1.70805941        1 
H      -1.90299673       2.98500345       0.50782072        1 
