35
Lattice="0.0 0.0 0.0 0.0 0.0 0.0 0.0 0.0 0.0" Properties=species:S:1:pos:R:3:Z:I:1 pbc="F F F"
C      -0.75703489       0.07277854      -0.78535541        6 
C       0.73101813      -0.30959527      -0.61353820        6 
C      -1.17252187       1.22391602       0.12711624        6 
C       1.70721710       0.85251483      -0.60486036        6 
O      -2.45828141       1.57034157      -0.11679950        8 
O      -0.46649483       1.82718031       0.89166380        8 
O       2.90869256       0.50410515      -0.09945040        8 
O       1.48073818       1.93415657      -1.08570102        8 
C       3.91880847       1.53010826      -0.12233010        6 
C      -2.96564365       2.68211562       0.64282566        6 
C      -1.39830795      -1.25771368      -0.22179683        6 
C      -0.87583269      -2.47783911      -1.04834828        6 
C       0.50175111      -2.75939958      -0.38971624        6 
C       0.67533692      -1.47789501       0.45483116        6 
O      -0.65280309      -1.35729671       1.00651465        8 
H      -1.04609106       0.29756141      -1.81117211        1 
H       1.02707026      -0.78501048      -1.55790360        1 
H       3.57883876       2.40716682       0.42942692        1 
H      -2.37681179       3.57867064       0.44363699        1 
H      -1.55591001      -3.32378738      -0.94534912        1 
H      -0.80347379      -2.24272319      -2.11317686        1 
H       0.45514229      -3.62728569       0.27147261        1 
H       1.31192839      -2.91200655      -1.10610825        1 
H       4.79077435       1.08802127       0.35495682        1 
H       4.14722418       1.81810267      -1.14984475        1 
H      -2.93280840       2.46215963       1.71125040        1 
H      -3.99313171       2.81480714       0.31061369        1 
C       1.68930057      -1.52411330       1.57144241        6 
H       1.42842993      -2.33943898       2.25083687        1 
H       2.69128961      -1.69424916       1.17827515        1 
H       1.69340148      -0.58800588       2.13055759        1 
C      -2.88652469      -1.30612391       0.05214525        6 
H      -3.14225031      -2.29200912       0.44742097        1 
H      -3.19314240      -0.55239261       0.77429836        1 
H      -3.44936748      -1.14355896      -0.87003005        1 
