35
Lattice="0.0 0.0 0.0 0.0 0.0 0.0 0.0 0.0 0.0" Properties=species:S:1:pos:R:3:Z:I:1 pbc="F F F"
C      -0.57046439       0.52611807      -0.88611043        6 
C       0.22818899      -0.79665720      -0.59579334        6 
C      -0.03343754       1.89528843      -0.50674498        6 
C       1.64660479      -0.72180716      -0.05536737        6 
O       0.49568985       1.95465982       0.71524861        8 
O      -0.18747191       2.86274356      -1.22098164        8 
O       2.49194722      -1.30570559      -0.94933657        8 
O       2.02680838      -0.26290220       0.98909061        8 
C       3.87762430      -1.34519595      -0.56493199        6 
C       0.95822251       3.24148741       1.15768142        6 
C      -1.91810211       0.22538021      -0.11826034        6 
C      -2.67280743      -0.87426191      -0.91544458        6 
C      -1.88452706      -2.14966790      -0.52119040        6 
C      -0.76386948      -1.55741501       0.37187562        6 
O      -1.44892612      -0.48575108       1.03348034        8 
H      -0.76175403       0.60607548      -1.95519764        1 
H       0.30688016      -1.34840602      -1.53063031        1 
H       4.00001930      -1.89824036       0.36790405        1 
H       0.11824360       3.93019313       1.26831593        1 
H      -3.70966462      -0.92715604      -0.57824447        1 
H      -2.68029396      -0.67595649      -1.98869656        1 
H      -2.50121348      -2.82637320       0.07369570        1 
H      -1.49583666      -2.70929075      -1.37381896        1 
H       4.39116115      -1.84951834      -1.38060748        1 
H       4.26593853      -0.33391651      -0.43289165        1 
H       1.66986232       3.65891818       0.44395788        1 
H       1.43560683       3.05736568       2.11697097        1 
C      -0.16051922      -2.51218464       1.37777959        6 
H      -0.95421839      -2.97378574       1.96928977        1 
H       0.38901117      -3.30640224       0.86402863        1 
H       0.52094397      -1.98972685       2.04859969        1 
C      -2.75644371       1.41944322       0.28171487        6 
H      -3.65361640       1.07995675       0.80305011        1 
H      -2.20340075       2.08226196       0.94831891        1 
H      -3.05716510       1.98693710      -0.60183703        1 
