35
Lattice="0.0 0.0 0.0 0.0 0.0 0.0 0.0 0.0 0.0" Properties=species:S:1:pos:R:3:Z:I:1 pbc="F F F"
C       0.16507387       0.96878706       0.60525222        6 
C       0.42843989      -0.55939586       0.87326563        6 
C      -1.16270002       1.27495027      -0.07037312        6 
C      -0.65401992      -1.57238498       0.56701575        6 
O      -2.14486804       1.24700185       0.86723155        8 
O      -1.37551978       1.48251954      -1.23504967        8 
O      -1.29409731      -1.33080234      -0.58750724        8 
O      -0.86767874      -2.54127581       1.25816385        8 
C      -2.30176110      -2.27744613      -0.98148118        6 
C      -3.48663915       1.39332639       0.37104001        6 
C       1.43312744       1.34655029      -0.22479680        6 
C       2.65162578       1.28487408       0.74541101        6 
C       2.91528206      -0.23856105       0.84462268        6 
C       1.73737583      -0.80240840       0.01683350        6 
O       1.61508989       0.16669288      -1.03051495        8 
H       0.14824793       1.49620151       1.56003862        1 
H       0.64859960      -0.71699923       1.92778468        1 
H      -3.07521911      -2.35157309      -0.21534433        1 
H      -3.70230663       0.61885130      -0.36703969        1 
H       3.50097252       1.81227198       0.30831543        1 
H       2.43249055       1.75064340       1.70890005        1 
H       3.85585585      -0.50954868       0.36114837        1 
H       2.93579241      -0.62130384       1.86659586        1 
H      -2.71120987      -1.88794195      -1.91074236        1 
H      -1.85839954      -3.26208690      -1.13824635        1 
H      -3.62193191       2.37286197      -0.09053178        1 
H      -4.13229225       1.28751960       1.24013237        1 
C       1.93542661      -2.18992440      -0.55093799        6 
H       2.85370177      -2.21590773      -1.14127924        1 
H       2.01559372      -2.92581759       0.25253584        1 
H       1.10382236      -2.47022056      -1.19968528        1 
C       1.38792454       2.59464820      -1.08028288        6 
H       2.34901609       2.72288142      -1.58334183        1 
H       0.59800558       2.53440835      -1.82490633        1 
H       1.21357674       3.47298276      -0.45127463        1 
