35
Lattice="0.0 0.0 0.0 0.0 0.0 0.0 0.0 0.0 0.0" Properties=species:S:1:pos:R:3:Z:I:1 pbc="F F F"
C      -0.44617594       0.86051396      -0.73906556        6 
C      -0.27770344      -0.70546889      -0.81260192        6 
C       0.68460284       1.74907993      -0.23617699        6 
C       1.15013359      -1.22961818      -0.74004969        6 
O       1.79699682       1.09674870       0.12728463        8 
O       0.56836272       2.94865144      -0.14373319        8 
O       1.52550786      -1.68046246       0.46723810        8 
O       1.86692520      -1.26363313      -1.71290856        8 
C       2.88028247      -2.14775849       0.56578820        6 
C       2.88122418       1.90676833       0.61657168        6 
C      -1.71863261       0.95856095       0.19874299        6 
C      -2.93186422       0.43670530      -0.62378899        6 
C      -2.72785284      -1.09580708      -0.56136813        6 
C      -1.37626873      -1.20318099       0.19534549        6 
O      -1.47310026      -0.11204130       1.12598900        8 
H      -0.68640356       1.26338857      -1.72415376        1 
H      -0.56990444      -1.00626398      -1.82045330        1 
H       3.57505607      -1.35796284       0.27649333        1 
H       2.56236140       2.48069640       1.48718766        1 
H      -3.86258783       0.73608258      -0.13963011        1 
H      -2.94199093       0.83726671      -1.63923643        1 
H      -3.51017368      -1.57345706       0.03111821        1 
H      -2.70096745      -1.58106491      -1.53870467        1 
H       3.01864063      -2.42013560       1.61000980        1 
H       3.03662171      -3.01261677      -0.08119021        1 
H       3.22520209       2.58921023      -0.16169236        1 
H       3.66700297       1.20485501       0.88548767        1 
C      -1.18782059      -2.52045317       0.91791112        6 
H      -2.08103615      -2.73588994       1.50876769        1 
H      -1.05184279      -3.33095852       0.19615257        1 
H      -0.32291781      -2.49425059       1.57473330        1 
C      -1.98986238       2.24417041       0.94845481        6 
H      -2.90113014       2.11642894       1.53746452        1 
H      -1.17261802       2.50062535       1.62066639        1 
H      -2.12761882       3.07485463       0.25476408        1 
