35
Lattice="0.0 0.0 0.0 0.0 0.0 0.0 0.0 0.0 0.0" Properties=species:S:1:pos:R:3:Z:I:1 pbc="F F F"
C      -0.41664829       0.56030533      -0.88213955        6 
C      -0.20029457      -0.97466543      -0.59354836        6 
C       0.75729948       1.47712925      -0.60596832        6 
C       1.12096857      -1.28600333       0.09514928        6 
O       1.16599210       1.41673846       0.67356555        8 
O       1.26990535       2.18674406      -1.43866458        8 
O       2.11708002      -1.20740952      -0.82239699        8 
O       1.31527605      -1.54414006       1.25339834        8 
C       3.45250104      -1.38798411      -0.32009389        6 
C       2.29191121       2.23739859       1.02846250        6 
C      -1.71674873       0.85293807      -0.03922766        6 
C      -2.90433049       0.31569900      -0.87318684        6 
C      -2.69215847      -1.21390731      -0.75186458        6 
C      -1.48537767      -1.30241204       0.23068321        6 
O      -1.63845418      -0.10879737       1.02136449        8 
H      -0.62210226       0.70691194      -1.94137327        1 
H      -0.18586491      -1.51771587      -1.53962969        1 
H       3.57979287      -2.39743583       0.07445690        1 
H       2.03870620       3.29453319       0.93059560        1 
H      -3.84082600       0.62348830      -0.40434152        1 
H      -2.90127658       0.68434584      -1.90069863        1 
H      -3.56183885      -1.70631900      -0.31402515        1 
H      -2.48123097      -1.70051196      -1.70682459        1 
H       4.10796247      -1.22399524      -1.17242224        1 
H       3.66010787      -0.66688107       0.47186667        1 
H       3.14404731       2.01473807       0.38453411        1 
H       2.51249368       1.98900616       2.06395891        1 
C      -1.48838766      -2.54317434       1.09805364        6 
H      -2.46200225      -2.64258751       1.58336008        1 
H      -1.32487614      -3.43149823       0.48026569        1 
H      -0.71135739      -2.49769430       1.85713053        1 
C      -1.88462402       2.25505113       0.50264635        6 
H      -2.81974049       2.32399385       1.06254881        1 
H      -1.06323628       2.51835514       1.16933736        1 
H      -1.92054636       2.97715478      -0.31767443        1 
