35
Lattice="0.0 0.0 0.0 0.0 0.0 0.0 0.0 0.0 0.0" Properties=species:S:1:pos:R:3:Z:I:1 pbc="F F F"
C      -0.07201107       0.60232800      -0.72981601        6 
C      -0.26542471      -0.92321684      -0.52829543        6 
C       0.96526549       1.18403985       0.22399309        6 
C       0.96957187      -1.75378702      -0.23227776        6 
O       1.15630582       2.49877374      -0.02093742        8 
O       1.61004237       0.57040202       1.03668557        8 
O       2.01463873      -1.30186635      -0.96259787        8 
O       0.99649225      -2.79062583       0.38196702        8 
C       3.24340489      -2.03387099      -0.81732517        6 
C       2.13686951       3.15613238       0.80326936        6 
C      -1.50986232       1.08325833      -0.29511055        6 
C      -2.56696991       0.41729521      -1.23427655        6 
C      -2.73612042      -0.98701846      -0.59577710        6 
C      -1.54565182      -0.99955137       0.38855888        6 
O      -1.64365105       0.33801794       0.92726267        8 
H       0.18393072       0.88591022      -1.75038935        1 
H      -0.54679134      -1.33183914      -1.50624663        1 
H       3.11151273      -3.07304249      -1.12306021        1 
H       3.10819137       2.67058861       0.70040846        1 
H      -3.49814819       0.98514045      -1.21644309        1 
H      -2.22270517       0.38175667      -2.27077741        1 
H      -3.67014662      -1.05493622      -0.03434789        1 
H      -2.70590833      -1.80753015      -1.31613288        1 
H       3.95877280      -1.53150236      -1.46511365        1 
H       3.57850675      -2.00130603       0.22046378        1 
H       1.83236019       3.12944460       1.85085471        1 
H       2.17834105       4.18151271       0.44243577        1 
C      -1.60211290      -2.01553696       1.50350416        6 
H      -2.53723883      -1.88439751       2.05410671        1 
H      -1.55996237      -3.02967351       1.10516524        1 
H      -0.76371312      -1.89114837       2.18768697        1 
C      -1.75227914       2.55713165      -0.05127774        6 
H      -2.79470968       2.70296098       0.24109369        1 
H      -1.11328020       2.94890574       0.73770283        1 
H      -1.56183692       3.13088016      -0.96130192        1 
