35
Lattice="0.0 0.0 0.0 0.0 0.0 0.0 0.0 0.0 0.0" Properties=species:S:1:pos:R:3:Z:I:1 pbc="F F F"
C      -0.53749610       0.53635231       0.70969743        6 
C       0.87976254      -0.11043547       0.87732105        6 
C      -1.68234508      -0.40123379       0.36311318        6 
C       0.98669331      -1.59370088       0.55152106        6 
O      -2.83379111       0.29586816       0.23988122        8 
O      -1.64533556      -1.60470547       0.30997759        8 
O       0.94574081      -1.84906752      -0.76621930        8 
O       1.11740481      -2.44353549       1.39939002        8 
C       0.88495225      -3.23809164      -1.13187867        6 
C      -4.01891926      -0.47794239      -0.02417858        6 
C      -0.22714927       1.69668467      -0.32925425        6 
C       0.46256661       2.82621726       0.47893779        6 
C       1.85167720       2.20261937       0.76307183        6 
C       1.75763325       0.84542317       0.00650732        6 
O       0.87067504       1.15710363      -1.07982591        8 
H      -0.84846309       0.99185869       1.65239432        1 
H       1.18142355      -0.05321496       1.92299174        1 
H      -0.02150215      -3.68483859      -0.72096106        1 
H      -4.18899361      -1.20022213       0.77532372        1 
H       0.54894278       3.71685322      -0.14648667        1 
H      -0.09471517       3.10003995       1.37710563        1 
H       2.65416985       2.80644634       0.33633522        1 
H       2.06334316       2.06770583       1.82550740        1 
H       0.86097470      -3.24977663      -2.21958292        1 
H       1.75858659      -3.77520766      -0.75933265        1 
H      -3.92418513      -1.00816371      -0.97315861        1 
H      -4.83094619       0.24442371      -0.07010773        1 
C       3.08388191       0.31326108      -0.49230594        6 
H       3.60274824       1.08884119      -1.06001691        1 
H       3.71518914       0.02867113       0.35435818        1 
H       2.94411120      -0.55514188      -1.13381976        1 
C      -1.30926699       2.16333713      -1.27865317        6 
H      -0.89287420       2.93633706      -1.92841427        1 
H      -1.67011359       1.34583822      -1.90452993        1 
H      -2.15697337       2.57586695      -0.73123934        1 
