35
Lattice="0.0 0.0 0.0 0.0 0.0 0.0 0.0 0.0 0.0" Properties=species:S:1:pos:R:3:Z:I:1 pbc="F F F"
C      -0.46826435       0.59384614      -0.87281081        6 
C       0.04455675      -0.86769395      -0.59150911        6 
C       0.37141995       1.80099312      -0.49821806        6 
C       1.43835223      -1.03613153      -0.01069709        6 
O       0.85618720       1.75311397       0.74485039        8 
O       0.50501914       2.75220830      -1.23657347        8 
O       2.26894759      -1.51448547      -0.97609505        8 
O       1.81086513      -0.80010742       1.10822271        8 
C       3.63872101      -1.71259791      -0.58351897        6 
C       1.62026156       2.88769171       1.18643314        6 
C      -1.84535556       0.57887782      -0.10191293        6 
C      -2.82114833      -0.30120240      -0.92900592        6 
C      -2.31235448      -1.72770139      -0.59967055        6 
C      -1.10706137      -1.42544357       0.33061570        6 
O      -1.55430301      -0.25291810       1.02668591        8 
H      -0.64308202       0.71720203      -1.94038691        1 
H       0.05234669      -1.40988340      -1.53552778        1 
H       3.70126009      -2.42508120       0.24066413        1 
H       0.99409799       3.78136014       1.21482481        1 
H      -3.84225262      -0.15051916      -0.57396090        1 
H      -2.79687857      -0.06052167      -1.99321096        1 
H      -3.06046223      -2.29882444      -0.04690384        1 
H      -2.02667491      -2.30908724      -1.47843923        1 
H       4.14032913      -2.10218835      -1.46668008        1 
H       4.08741490      -0.76752178      -0.27297768        1 
H       2.46383046       3.06397401       0.51740003        1 
H       1.96711922       2.62621390       2.18313693        1 
C      -0.75657581      -2.52962579       1.30345479        6 
H      -1.64750531      -2.81544876       1.86680354        1 
H      -0.39759924      -3.41060371       0.76288575        1 
H       0.01344778      -2.20620495       2.00256635        1 
C      -2.39574524       1.91769869       0.33632660        6 
H      -3.34216063       1.77185741       0.86147196        1 
H      -1.70439180       2.42422437       1.01127038        1 
H      -2.57353043       2.56067705      -0.52923077        1 
