35
Lattice="0.0 0.0 0.0 0.0 0.0 0.0 0.0 0.0 0.0" Properties=species:S:1:pos:R:3:Z:I:1 pbc="F F F"
C      -0.78126845       0.32752335       0.76649189        6 
C       0.77131687       0.15762842       0.74884510        6 
C      -1.50859866      -1.00980240       0.71957055        6 
C       1.24105902      -1.05796460      -0.03185672        6 
O      -2.41489883      -1.13236815      -0.25798299        8 
O      -1.29976356      -1.86274419       1.55065545        8 
O       2.55477509      -1.28069209       0.18904525        8 
O       0.55752390      -1.78070917      -0.71280707        8 
C       3.11875334      -2.42574708      -0.47703429        6 
C      -3.04839258      -2.42137614      -0.36537657        6 
C      -1.00338884       1.51432455      -0.24451313        6 
C      -0.75227899       2.79890912       0.58623421        6 
C       0.76685011       2.68543748       0.87314290        6 
C       1.17484715       1.47210068      -0.01571202        6 
O       0.18706958       1.48256686      -1.05822775        8 
H      -1.04775357       0.68833460       1.76428718        1 
H       1.20831446       0.11276400       1.74535915        1 
H       3.05432675      -2.30714095      -1.56003953        1 
H      -3.59582473      -2.65908056       0.54784558        1 
H      -0.97320184       3.67343240      -0.02880712        1 
H      -1.36980490       2.84992151       1.48504688        1 
H       1.30481832       3.58063694       0.55777486        1 
H       0.99833185       2.51300016       1.92659164        1 
H       4.15761512      -2.46489051      -0.15708567        1 
H       2.58944819      -3.33320448      -0.18348672        1 
H      -2.29389063      -3.18698142      -0.54910190        1 
H      -3.72762482      -2.33856861      -1.21114634        1 
C       2.56452783       1.56022988      -0.60850637        6 
H       2.68898987       2.53243364      -1.09045335        1 
H       3.32377013       1.45130321       0.16852401        1 
H       2.72830346       0.78374773      -1.35596963        1 
C      -2.23218539       1.55766443      -1.12424826        6 
H      -2.21632750       2.48057192      -1.70916921        1 
H      -2.26223093       0.70579882      -1.79943963        1 
H      -3.14082250       1.54471457      -0.51820895        1 
