35
Lattice="0.0 0.0 0.0 0.0 0.0 0.0 0.0 0.0 0.0" Properties=species:S:1:pos:R:3:Z:I:1 pbc="F F F"
C      -0.35714308       0.61500012      -0.88645957        6 
C      -0.08431488      -0.87312437      -0.56390193        6 
C       0.50203403       1.64082231      -0.16481210        6 
C       1.34252842      -1.35130035      -0.38195484        6 
O       1.07727213       1.15945005       0.94947016        8 
O       0.55668843       2.80414752      -0.49082316        8 
O       2.23543403      -0.48735273      -0.90767085        8 
O       1.64525659      -2.45908878      -0.00738224        8 
C       3.60552543      -0.92564985      -0.92821317        6 
C       1.81874188       2.10124328       1.74141856        6 
C      -1.82176054       0.71972685      -0.30203354        6 
C      -2.73840614      -0.29506252      -1.05816132        6 
C      -2.43065203      -1.62920135      -0.32338546        6 
C      -1.19592309      -1.21707821       0.50703265        6 
O      -1.62253441       0.08117758       0.97012447        8 
H      -0.31717636       0.84437470      -1.95056948        1 
H      -0.34761928      -1.43468796      -1.46836638        1 
H       3.70428543      -1.84641575      -1.50519338        1 
H       1.16285127       2.89385729       2.10475502        1 
H      -3.78471519      -0.00577179      -0.95282712        1 
H      -2.51309852      -0.32759309      -2.12696426        1 
H      -3.24490059      -1.90448708       0.35023631        1 
H      -2.23738601      -2.46988304      -0.99297976        1 
H       4.16049165      -0.11586672      -1.39665645        1 
H       3.96343903      -1.09979423       0.08773538        1 
H       2.62486259       2.54342597       1.15350612        1 
H       2.22003805       1.52667266       2.57328578        1 
C      -0.82373391      -2.09501926       1.67534379        6 
H      -1.68345795      -2.19219156       2.34277050        1 
H      -0.51844458      -3.08340800       1.33208066        1 
H       0.00619036      -1.65822771       2.23256769        1 
C      -2.41988002       2.09862973      -0.13694725        6 
H      -3.41241950       2.00948965       0.31027531        1 
H      -1.80611300       2.73703616       0.49755370        1 
H      -2.51655012       2.58595330      -1.10999452        1 
