35
Lattice="0.0 0.0 0.0 0.0 0.0 0.0 0.0 0.0 0.0" Properties=species:S:1:pos:R:3:Z:I:1 pbc="F F F"
C      -0.30805587       0.51616610      -0.76323150        6 
C       0.23362746      -0.90869155      -0.46952814        6 
C       0.29988845       1.54478622       0.20233944        6 
C       1.71724387      -1.08823931      -0.20647862        6 
O      -0.41603678       2.68517946       0.24795632        8 
O       1.37047534       1.44064439       0.74857370        8 
O       2.42964319      -0.31353157      -1.05397425        8 
O       2.21419807      -1.96358608       0.45863314        8 
C       3.85844689      -0.43038847      -0.96185458        6 
C       0.12786371       3.74023939       1.06300088        6 
C      -1.82420359       0.24373340      -0.42165804        6 
C      -2.34530807      -0.95066205      -1.29272302        6 
C      -1.87085968      -2.18713225      -0.48642263        6 
C      -0.86894099      -1.51801316       0.47739137        6 
O      -1.63940771      -0.35921665       0.87752622        8 
H      -0.12647088       0.84997172      -1.78594367        1 
H       0.16321385      -1.45408320      -1.41862634        1 
H       4.17716086      -1.45306229      -1.17065964        1 
H       1.09947271       4.05572432       0.67983182        1 
H      -3.43147643      -0.91036397      -1.37476801        1 
H      -1.94208915      -0.91666905      -2.30807284        1 
H      -2.69007039      -2.62393097       0.08837361        1 
H      -1.41856657      -2.97069268      -1.09824273        1 
H       4.25401919       0.25516693      -1.70840799        1 
H       4.19429798      -0.14212408       0.03544641        1 
H       0.23977348       3.40422133       2.09441841        1 
H      -0.59261632       4.55294306       0.99931389        1 
C      -0.45056990      -2.31195941       1.69041425        6 
H      -1.34454265      -2.60273264       2.24822616        1 
H       0.09667559      -3.20665367       1.39421298        1 
H       0.19837589      -1.72395477       2.33960590        1 
C      -2.82191491       1.38296200      -0.35432957        6 
H      -3.81593876       0.97137290      -0.16500190        1 
H      -2.58096542       2.09082622       0.43215889        1 
H      -2.84676981       1.92041055      -1.30585631        1 
