35
Lattice="0.0 0.0 0.0 0.0 0.0 0.0 0.0 0.0 0.0" Properties=species:S:1:pos:R:3:Z:I:1 pbc="F F F"
C       0.16592881       0.72809586       0.59750216        6 
C       0.34822064      -0.83430806       0.65396322        6 
C      -1.14004269       1.20197648      -0.00075774        6 
C      -0.69083550      -1.58700218      -0.16339796        6 
O      -1.86156295       1.88133023       0.92370225        8 
O      -1.51790923       1.03022990      -1.13231642        8 
O      -1.77612002      -1.83082379       0.61748287        8 
O      -0.64136686      -1.88038058      -1.32668185        8 
C      -2.90857872      -2.41150443      -0.05723038        6 
C      -3.14341168       2.36672673       0.48378743        6 
C       1.46447079       1.16809046      -0.18250157        6 
C       2.60030747       1.18323444       0.86975747        6 
C       2.76337193      -0.33313856       1.15362968        6 
C       1.80296148      -0.96876157       0.10236776        6 
O       1.80079073       0.00803531      -0.95171866        8 
H       0.19617206       1.12254142       1.61162129        1 
H       0.26527916      -1.17955631       1.68450507        1 
H      -2.65847670      -3.40121084      -0.44270305        1 
H      -3.77086243       1.53659729       0.15530766        1 
H       3.50237955       1.60082419       0.41812121        1 
H       2.35552567       1.77488738       1.75393616        1 
H       3.78578618      -0.66825403       0.97213767        1 
H       2.49918554      -0.61511104       2.17559399        1 
H      -3.69056996      -2.48178094       0.69596765        1 
H      -3.22039330      -1.77276220      -0.88493879        1 
H      -3.02413546       3.07191162      -0.34012027        1 
H      -3.58053236       2.85825609       1.35010899        1 
C       2.23245574      -2.32814215      -0.40685321        6 
H       3.26748631      -2.28029077      -0.75261216        1 
H       2.17534363      -3.06642627       0.39887115        1 
H       1.59962712      -2.65214132      -1.23070094        1 
C       1.35624946       2.39004085      -1.06605634        6 
H       2.32140635       2.59221594      -1.53518523        1 
H       0.61165648       2.23508942      -1.84674266        1 
H       1.07203094       3.26452869      -0.47334941        1 
