35
Lattice="0.0 0.0 0.0 0.0 0.0 0.0 0.0 0.0 0.0" Properties=species:S:1:pos:R:3:Z:I:1 pbc="F F F"
C      -0.77533181       0.15337202      -0.93441329        6 
C       0.58772141      -0.51502631      -0.59156651        6 
C      -1.06070504       1.57908641      -0.48529301        6 
C       1.79633288       0.35211364      -0.29836189        6 
O      -0.82268143       1.79573348       0.80936222        8 
O      -1.58464845       2.39026386      -1.21780429        8 
O       2.90131208      -0.26853513      -0.79200018        8 
O       1.85466250       1.39615515       0.29793185        8 
C       4.15604246       0.39203160      -0.54793806        6 
C      -1.07840954       3.12369340       1.29212725        6 
C      -1.74095125      -0.84733052      -0.19363730        6 
C      -1.60240765      -2.24713546      -0.87073678        6 
C      -0.31580577      -2.80624161      -0.20491243        6 
C       0.18598208      -1.55146800       0.54408568        6 
O      -1.04736593      -1.02692111       1.04978625        8 
H      -0.95250957       0.15016278      -2.00894447        1 
H       0.88930872      -1.09518120      -1.46323660        1 
H       4.32816011       0.50511886       0.52364684        1 
H      -2.12422952       3.39559629       1.13852900        1 
H      -2.47489006      -2.86284500      -0.64678070        1 
H      -1.52444636      -2.16579808      -1.95707207        1 
H      -0.55311508      -3.58588440       0.52220527        1 
H       0.41263899      -3.20645268      -0.91289114        1 
H       4.91285957      -0.25056432      -0.99263020        1 
H       4.16579775       1.37706384      -1.01722243        1 
H      -0.43831444       3.84059068       0.77575362        1 
H      -0.83818224       3.09415788       2.35231630        1 
C       1.18001524      -1.76857583       1.66001242        6 
H       0.76121769      -2.45190147       2.40206247        1 
H       2.10230952      -2.20457491       1.26875154        1 
H       1.41884300      -0.82450149       2.15411301        1 
C      -3.16163043      -0.38031844       0.03090323        6 
H      -3.72412364      -1.14869037       0.56557994        1 
H      -3.18692070       0.53667583       0.62063129        1 
H      -3.65193827      -0.19055237      -0.92687114        1 
