35
Lattice="0.0 0.0 0.0 0.0 0.0 0.0 0.0 0.0 0.0" Properties=species:S:1:pos:R:3:Z:I:1 pbc="F F F"
C       0.18707671       0.96492666       0.54731079        6 
C       0.15599696      -0.59418264       0.69568694        6 
C      -1.11149733       1.60965018       0.08636950        6 
C      -0.93969681      -1.28566981      -0.10410558        6 
O      -2.04176907       1.44826331       1.06019194        8 
O      -1.30558911       2.24831401      -0.91386068        8 
O      -0.87274695      -2.62401469       0.06304893        8 
O      -1.82942735      -0.75340840      -0.71878759        8 
C      -1.88703945      -3.39797500      -0.60445601        6 
C      -3.37187328       1.87893170       0.72548554        6 
C       1.49911284       1.20349069      -0.28178911        6 
C       2.65155914       1.16308545       0.75103433        6 
C       2.61997791      -0.32334409       1.18448660        6 
C       1.60326734      -0.93791567       0.17361503        6 
O       1.68987895      -0.05696492      -0.95721375        8 
H       0.33155711       1.37844337       1.54874220        1 
H       0.02667439      -0.90780411       1.73270124        1 
H      -1.83020842      -3.24980876      -1.68392155        1 
H      -3.73869236       1.30870726      -0.12946797        1 
H       3.59079461       1.40856826       0.25158762        1 
H       2.50880852       1.86727097       1.57339276        1 
H       3.59564239      -0.79824352       1.07183743        1 
H       2.29974770      -0.46747979       2.21904803        1 
H      -1.67472430      -4.43368060      -0.34849391        1 
H      -2.87932374      -3.10958152      -0.25479071        1 
H      -3.38492813       2.94337063       0.48692973        1 
H      -3.97476087       1.67727231       1.60875907        1 
C       1.93584125      -2.35419273      -0.24692965        6 
H       2.98170708      -2.38867671      -0.56082767        1 
H       1.79475600      -3.04993968       0.58237188        1 
H       1.31529514      -2.68436068      -1.07827258        1 
C       1.56534053       2.34809609      -1.26782982        6 
H       2.56315402       2.37424945      -1.71281429        1 
H       0.81957942       2.24101209      -2.05159060        1 
H       1.38545601       3.29976418      -0.76193271        1 
