35
Lattice="0.0 0.0 0.0 0.0 0.0 0.0 0.0 0.0 0.0" Properties=species:S:1:pos:R:3:Z:I:1 pbc="F F F"
C      -0.47045866       0.77686005      -0.81998594        6 
C      -0.33622796      -0.79219935      -0.88739854        6 
C       0.80442686       1.58228462      -0.67031678        6 
C       1.07126805      -1.28200347      -0.57416225        6 
O       1.50098094       1.27086501       0.43940741        8 
O       1.15621006       2.42603987      -1.45934715        8 
O       1.28251894      -1.59453496       0.71077620        8 
O       1.92086771      -1.37740123      -1.43050559        8 
C       2.62881534      -1.96116632       1.05433402        6 
C       2.73698996       1.98284751       0.63132063        6 
C      -1.53834139       0.95368671       0.33026554        6 
C      -2.91591116       0.70733635      -0.32706628        6 
C      -2.83528012      -0.81106893      -0.62314111        6 
C      -1.49607357      -1.21401763       0.07042901        6 
O      -1.37799541      -0.23502024       1.11884523        8 
H      -0.88782780       1.13757930      -1.75859375        1 
H      -0.51884811      -1.12510692      -1.90921896        1 
H       3.31395462      -1.14897082       0.80651004        1 
H       2.55147167       3.05483817       0.71341081        1 
H      -3.70265031       0.92796209       0.39698230        1 
H      -3.08421041       1.32232620      -1.21323061        1 
H      -3.66652489      -1.35423026      -0.17086445        1 
H      -2.82949162      -1.04400672      -1.69019307        1 
H       2.61448320      -2.13812712       2.12744111        1 
H       2.93335024      -2.86088420       0.51741479        1 
H       3.41314455       1.79730395      -0.20431933        1 
H       3.15197145       1.59468295       1.55899375        1 
C      -1.49707548      -2.62655097       0.61637888        6 
H      -2.37711165      -2.77291345       1.24672410        1 
H      -1.54742585      -3.34391636      -0.20827850        1 
H      -0.60556570      -2.82847802       1.20502573        1 
C      -1.42749872       2.19486470       1.18603435        6 
H      -2.23590015       2.21440938       1.92021593        1 
H      -0.47582854       2.21434512       1.71732711        1 
H      -1.50340184       3.09131150       0.56464284        1 
