35
Lattice="0.0 0.0 0.0 0.0 0.0 0.0 0.0 0.0 0.0" Properties=species:S:1:pos:R:3:Z:I:1 pbc="F F F"
C      -0.73952626       0.35984675      -0.92621462        6 
C       0.37055115      -0.70748413      -0.62889421        6 
C      -0.34119182       1.78576741      -0.56205358        6 
C       1.71753140      -0.19822105      -0.16277584        6 
O      -0.54905147       2.10082099       0.71973778        8 
O       0.09982514       2.55715472      -1.38389593        8 
O       2.70381052      -0.91805233      -0.74757699        8 
O       1.93117984       0.67334509       0.64259107        8 
C       4.04751412      -0.58252305      -0.35276928        6 
C      -0.03796480       3.37404057       1.14989671        6 
C      -1.94617946      -0.26187705      -0.15061621        6 
C      -2.34706316      -1.57587702      -0.89240961        6 
C      -1.27332596      -2.57545903      -0.39168006        6 
C      -0.35587936      -1.63896557       0.42814974        6 
O      -1.30713609      -0.76010039       1.03884039        8 
H      -0.93540945       0.39430903      -1.99758683        1 
H       0.56718699      -1.28699459      -1.52958467        1 
H       4.17894870      -0.73254651       0.71999549        1 
H      -0.47578763       4.18459697       0.56547183        1 
H      -3.35063506      -1.88199789      -0.59273271        1 
H      -2.34905351      -1.44970333      -1.97715068        1 
H      -1.70629289      -3.32583949       0.27322351        1 
H      -0.74359099      -3.09565778      -1.19235171        1 
H       4.69067914      -1.25468324      -0.91639096        1 
H       4.26720007       0.45702565      -0.59970382        1 
H       1.04721136       3.38628659       1.04208753        1 
H      -0.31792643       3.45659676       2.19765436        1 
C       0.51683033      -2.30168288       1.46915283        6 
H      -0.10311420      -2.89102446       2.14812462        1 
H       1.23786248      -2.96891898       0.99037831        1 
H       1.05844785      -1.55617696       2.05362614        1 
C      -3.11671273       0.63962768       0.17852571        6 
H      -3.89074700       0.06373208       0.69068264        1 
H      -2.81196594       1.46521209       0.81768595        1 
H      -3.54596870       1.04418902      -0.74276864        1 
