35
Lattice="0.0 0.0 0.0 0.0 0.0 0.0 0.0 0.0 0.0" Properties=species:S:1:pos:R:3:Z:I:1 pbc="F F F"
C      -0.67570732       0.37872549       0.77456918        6 
C       0.87704724       0.12833350       0.74255624        6 
C      -1.49058401      -0.74528676       0.12743346        6 
C       1.29047676      -1.33644238       0.74043982        6 
O      -2.70041871      -0.33016077      -0.29208600        8 
O      -1.17598103      -1.90982981       0.11979521        8 
O       1.65648141      -1.80603615      -0.46229656        8 
O       1.26645014      -2.00551755       1.74500036        8 
C       1.87644831      -3.22688395      -0.53563180        6 
C      -3.58385411      -1.35404978      -0.78900334        6 
C      -0.71478187       1.76165759       0.02901518        6 
C       0.09935012       2.78184487       0.89511726        6 
C       1.55657571       2.48743653       0.46662828        6 
C       1.36663768       1.17549767      -0.32840159        6 
O       0.16965792       1.48007920      -1.07169975        8 
H      -1.04286814       0.45519578       1.80110636        1 
H       1.25502563       0.45262749       1.71434805        1 
H       0.95723473      -3.75113647      -0.27179025        1 
H      -3.79442161      -2.08546433      -0.00759103        1 
H      -0.19658173       3.80363443       0.65540110        1 
H      -0.07347038       2.63264287       1.96343475        1 
H       1.93587900       3.26166330      -0.20357242        1 
H       2.25257778       2.38455424       1.30169504        1 
H       2.15124668      -3.42360456      -1.56987639        1 
H       2.67771367      -3.52904605       0.14020030        1 
H      -3.13678693      -1.86038629      -1.64530832        1 
H      -4.49164687      -0.83136520      -1.08257065        1 
C       2.50014497       0.82485761      -1.26541483        6 
H       2.74473347       1.69909178      -1.87352752        1 
H       3.38948130       0.53739768      -0.69881294        1 
H       2.23197973      -0.00231820      -1.91855254        1 
C      -2.01899702       2.34139635      -0.48158364        6 
H      -1.82285906       3.33671539      -0.88712135        1 
H      -2.45667898       1.72461939      -1.26068456        1 
H      -2.74361162       2.43534072       0.33076821        1 
