35
Lattice="0.0 0.0 0.0 0.0 0.0 0.0 0.0 0.0 0.0" Properties=species:S:1:pos:R:3:Z:I:1 pbc="F F F"
C       0.46987822       0.88970596       0.63587162        6 
C       0.04230952      -0.61738270       0.67525503        6 
C      -0.54563966       1.80931380      -0.02965793        6 
C      -1.27881432      -0.97557101       0.03325242        6 
O      -1.60325040       1.96387754       0.80521217        8 
O      -0.46173290       2.35592168      -1.09662977        8 
O      -1.77309275      -2.09664693       0.61083697        8 
O      -1.83082411      -0.40637097      -0.87406708        8 
C      -2.98866674      -2.61539351       0.04127910        6 
C      -2.73024084       2.66793165       0.25297371        6 
C       1.87193921       0.79529943      -0.04306217        6 
C       2.83421881       0.13564951       0.99009457        6 
C       2.43178309      -1.35855505       0.90952023        6 
C       1.25200691      -1.29977555      -0.09007582        6 
O       1.66651001      -0.27000006      -0.99243867        8 
H       0.56387534       1.25409916       1.66092631        1 
H       0.00200616      -0.98569848       1.69920136        1 
H      -2.83339666      -2.88891281      -1.00374503        1 
H      -3.09097550       2.14641831      -0.63474020        1 
H       3.86806763       0.28616433       0.67582673        1 
H       2.72380076       0.56294854       1.98879636        1 
H       3.23607525      -1.96473029       0.48722839        1 
H       2.14988587      -1.79553256       1.86931830        1 
H      -3.23486463      -3.49355703       0.63414321        1 
H      -3.78616826      -1.87359293       0.10253325        1 
H      -2.45402483       3.68960548      -0.01174403        1 
H      -3.48619885       2.66687587       1.03571666        1 
C       0.95901872      -2.57856944      -0.84342275        6 
H       1.86622992      -2.91891815      -1.34680843        1 
H       0.62158370      -3.36133462      -0.16073173        1 
H       0.18933054      -2.41632681      -1.60083700        1 
C       2.43743840       2.02561100      -0.71973028        6 
H       3.43573021       1.80075563      -1.10228826        1 
H       1.79935589       2.35006980      -1.53738830        1 
H       2.52295740       2.84480630       0.00031182        1 
