35
Lattice="0.0 0.0 0.0 0.0 0.0 0.0 0.0 0.0 0.0" Properties=species:S:1:pos:R:3:Z:I:1 pbc="F F F"
C       0.49084793       0.77829558       0.65206198        6 
C       0.00461675      -0.69429310       0.70549410        6 
C      -0.46424441       1.94231252       0.46508916        6 
C      -1.19014841      -1.06543612      -0.15499642        6 
O      -1.72941349       1.59006682       0.19883555        8 
O      -0.12283729       3.08723372       0.65911533        8 
O      -1.99914573      -1.91219007       0.53464241        8 
O      -1.40287688      -0.73245587      -1.29020155        8 
C      -3.14625085      -2.40042874      -0.18234017        6 
C      -2.68357235       2.66015881       0.07495529        6 
C       1.74857184       0.69387411      -0.31559245        6 
C       2.93326410       0.30196108       0.59545110        6 
C       2.49511281      -1.12279160       1.03576951        6 
C       1.27779210      -1.39641274       0.09704218        6 
O       1.53707547      -0.53908637      -1.02058341        8 
H       0.88826526       1.00584437       1.64450674        1 
H      -0.18974384      -1.02022336       1.72607269        1 
H      -2.83718546      -2.95919351      -1.06742894        1 
H      -2.38156851       3.34848988      -0.71516634        1 
H       3.84956384       0.26816899       0.00259303        1 
H       3.08310897       0.99626024       1.42428661        1 
H       3.27895151      -1.86052841       0.85860837        1 
H       2.21692706      -1.18186035       2.09072264        1 
H      -3.67176215      -3.04941410       0.51511598        1 
H      -3.78461802      -1.57085430      -0.49054893        1 
H      -2.76976086       3.20599831       1.01591621        1 
H      -3.62412304       2.17641613      -0.17869073        1 
C       1.11424268      -2.83463895      -0.34433506        6 
H       2.05198813      -3.20045011      -0.76815346        1 
H       0.84792038      -3.46590631       0.50728660        1 
H       0.33836318      -2.92879801      -1.10614553        1 
C       1.96159699       1.82924154      -1.28502935        6 
H       2.82855670       1.61549939      -1.91437474        1 
H       1.08811662       1.94931471      -1.92945840        1 
H       2.12796396       2.76571458      -0.75126192        1 
