35
Lattice="0.0 0.0 0.0 0.0 0.0 0.0 0.0 0.0 0.0" Properties=species:S:1:pos:R:3:Z:I:1 pbc="F F F"
C      -0.40211723       0.59406814      -0.84824515        6 
C      -0.14802456      -0.93459071      -0.58126724        6 
C       0.61689055       1.62233070      -0.39904408        6 
C       1.22709280      -1.27540606      -0.02686204        6 
O       1.33528428       1.23811906       0.66528999        8 
O       0.70605515       2.71718628      -0.90499387        8 
O       2.13837377      -1.13210380      -1.02280101        8 
O       1.52099361      -1.62771511       1.08458875        8 
C       3.51107972      -1.33817963      -0.64974655        6 
C       2.27681763       2.18876885       1.19151731        6 
C      -1.77352128       0.80039507      -0.08535687        6 
C      -2.87447202       0.12359257      -0.94258520        6 
C      -2.60887208      -1.37679522      -0.66541176        6 
C      -1.38722300      -1.31735149       0.29589967        6 
O      -1.63814810      -0.09891032       1.02143838        8 
H      -0.53890210       0.78674998      -1.91110512        1 
H      -0.19840468      -1.45677798      -1.53905161        1 
H       3.66151090      -2.35515617      -0.28417956        1 
H       1.75711097       3.07769300       1.55181415        1 
H      -3.85831986       0.42912309      -0.58160466        1 
H      -2.80490290       0.39767550      -1.99704811        1 
H      -3.45290832      -1.83887580      -0.15067895        1 
H      -2.40392606      -1.95959332      -1.56588442        1 
H       4.08849913      -1.16750401      -1.55578852        1 
H       3.80056557      -0.63170585       0.13022936        1 
H       2.99415675       2.47936619       0.42247074        1 
H       2.77198104       1.67452530       2.01202429        1 
C      -1.28160222      -2.49721946       1.23815508        6 
H      -2.24210345      -2.64714270       1.73656058        1 
H      -1.04044353      -3.40607200       0.67922498        1 
H      -0.50557108      -2.33691328       1.98166853        1 
C      -2.09703882       2.19717652       0.39496437        6 
H      -3.05672988       2.18613491       0.91585021        1 
H      -1.33673654       2.56712153       1.08470807        1 
H      -2.15947964       2.88936978      -0.44716369        1 
