35
Lattice="0.0 0.0 0.0 0.0 0.0 0.0 0.0 0.0 0.0" Properties=species:S:1:pos:R:3:Z:I:1 pbc="F F F"
C      -0.82112225       0.39931769      -0.84235622        6 
C       0.28930119      -0.70899422      -0.75100426        6 
C      -0.39350203       1.81535042      -0.49225778        6 
C       1.69503646      -0.17436405      -0.50362186        6 
O      -0.00156716       1.93331568       0.79077531        8 
O      -0.40612970       2.73128445      -1.27665653        8 
O       2.50156074      -1.06772231       0.09549904        8 
O       2.09162223       0.88942170      -0.91369953        8 
C       3.87889432      -0.67288533       0.24761663        6 
C       0.53561070       3.21493509       1.16098469        6 
C      -1.93668868      -0.19982135       0.07906771        6 
C      -2.58088057      -1.38226747      -0.69227163        6 
C      -1.48464073      -2.47006355      -0.57203241        6 
C      -0.38593958      -1.73287047       0.24665000        6 
O      -1.17014571      -0.87330933       1.08959688        8 
H      -1.18334774       0.48072576      -1.86633192        1 
H       0.38728262      -1.18884498      -1.72995294        1 
H       3.95013429       0.23114102       0.85345049        1 
H      -0.20873994       3.99995738       1.01866870        1 
H      -3.50091373      -1.68714726      -0.19042625        1 
H      -2.83150604      -1.11856054      -1.72144836        1 
H      -1.84029988      -3.32985804      -0.00224595        1 
H      -1.11808801      -2.83433247      -1.53409609        1 
H       4.36376355      -1.50906464       0.74664516        1 
H       4.33166867      -0.48882252      -0.72755101        1 
H       1.41539853       3.43632976       0.55472367        1 
H       0.80213710       3.12477769       2.21187666        1 
C       0.45370483      -2.65447432       1.10553581        6 
H      -0.21740777      -3.28661845       1.69204058        1 
H       1.08758940      -3.29381785       0.48842998        1 
H       1.09309642      -2.09570953       1.78606435        1 
C      -2.91765531       0.77628372       0.69035192        6 
H      -3.63293021       0.23846558       1.31624026        1 
H      -2.40379109       1.51266729       1.30784078        1 
H      -3.47059485       1.29912689      -0.09488296        1 
