35
Lattice="0.0 0.0 0.0 0.0 0.0 0.0 0.0 0.0 0.0" Properties=species:S:1:pos:R:3:Z:I:1 pbc="F F F"
C      -0.19678004       0.90280701       0.58709611        6 
C       0.52543544      -0.48539963       0.75888725        6 
C      -1.53207643       0.81169910      -0.12821831        6 
C      -0.38077969      -1.66315205       0.41732098        6 
O      -2.53886004       1.16617187       0.69559634        8 
O      -1.68836519       0.53134348      -1.29145837        8 
O       0.22974354      -2.67324488      -0.21663545        8 
O      -1.53744919      -1.71097403       0.76612809        8 
C      -0.58962549      -3.82169233      -0.51551212        6 
C      -3.86511292       1.02488711       0.15608078        6 
C       0.88036183       1.71262112      -0.20751561        6 
C       2.01170876       2.05828578       0.79564957        6 
C       2.72174552       0.69083514       0.95228946        6 
C       1.88351966      -0.22057888       0.00759297        6 
O       1.49059181       0.69995468      -1.02320298        8 
H      -0.38339727       1.35709631       1.55864846        1 
H       0.73043629      -0.64464380       1.82230900        1 
H      -1.42460988      -3.53118894      -1.15360461        1 
H      -4.05148436      -0.02030398      -0.09532014        1 
H       2.67540045       2.80251645       0.35229353        1 
H       1.62665050       2.46591295       1.73241301        1 
H       3.75114641       0.73637031       0.59280096        1 
H       2.74500422       0.32116666       1.97986149        1 
H       0.06877438      -4.51489912      -1.03435081        1 
H      -0.97249716      -4.26638949       0.40398376        1 
H      -3.98713265       1.64119392      -0.73599822        1 
H      -4.53675554       1.35428871       0.94595598        1 
C       2.67142038      -1.36735228      -0.58943819        6 
H       3.59950983      -0.97291620      -1.00998923        1 
H       2.92209967      -2.10279742       0.17824141        1 
H       2.11040967      -1.86918341      -1.37362643        1 
C       0.38986537       2.87062682      -1.04935258        6 
H       1.23783924       3.36206843      -1.53135910        1 
H      -0.30021206       2.52860302      -1.82008099        1 
H      -0.11926778       3.60510834      -0.41863414        1 
