35
Lattice="0.0 0.0 0.0 0.0 0.0 0.0 0.0 0.0 0.0" Properties=species:S:1:pos:R:3:Z:I:1 pbc="F F F"
C       0.24059601       0.85584800       0.64037412        6 
C       0.24367891      -0.71525210       0.54107640        6 
C      -0.74950563       1.54070211      -0.31130361        6 
C      -1.06512226      -1.41815670       0.23395423        6 
O      -2.01111513       1.11444830      -0.07996810        8 
O      -0.49983326       2.37368289      -1.14408292        8 
O      -1.90888593      -1.25881736       1.27924186        8 
O      -1.29665563      -2.16587265      -0.68391904        8 
C      -3.19977347      -1.87211618       1.14594433        6 
C      -3.03300899       1.67113037      -0.92792695        6 
C       1.72769045       1.12420971       0.25205258        6 
C       2.64773197       0.39119977       1.28624065        6 
C       2.67608606      -1.05882204       0.74095019        6 
C       1.54394466      -0.98757328      -0.30899346        6 
O       1.82534115       0.28878154      -0.91747196        8 
H      -0.01017206       1.17697776       1.65395433        1 
H       0.43850078      -1.07054753       1.55679474        1 
H      -3.10431994      -2.95118078       1.01498413        1 
H      -2.84975124       1.40257482      -1.96925628        1 
H       3.63978086       0.84335239       1.29145558        1 
H       2.25028729       0.46377684       2.30208915        1 
H       3.62089919      -1.27517613       0.23824673        1 
H       2.50536836      -1.82420182       1.50110163        1 
H      -3.72799267      -1.64326494       2.06916147        1 
H      -3.73255962      -1.45417260       0.28953554        1 
H      -3.05909906       2.75754715      -0.83478335        1 
H      -3.96621923       1.23430165      -0.57875441        1 
C       1.54097222      -2.07621998      -1.35698168        6 
H       2.52390189      -2.10798863      -1.83320105        1 
H       1.33780672      -3.04884788      -0.90448335        1 
H       0.77927600      -1.89425525      -2.11239185        1 
C       2.17522489       2.54460700      -0.02906885        6 
H       3.24005917       2.54011002      -0.27372083        1 
H       1.61913075       2.98850265      -0.84875054        1 
H       2.03680178       3.16009819       0.86535415        1 
