35
Lattice="0.0 0.0 0.0 0.0 0.0 0.0 0.0 0.0 0.0" Properties=species:S:1:pos:R:3:Z:I:1 pbc="F F F"
C       0.27535942       0.92744703       0.69602306        6 
C       0.35875469      -0.64037076       0.85397442        6 
C      -1.01209578       1.60257035       0.23767742        6 
C      -0.90700198      -1.44046862       0.58790621        6 
O      -2.09255613       0.81121036       0.30733731        8 
O      -1.07141756       2.76287707      -0.09240517        8 
O      -1.12472403      -1.67693396      -0.71926413        8 
O      -1.64989887      -1.81191390       1.46412927        8 
C      -2.34264525      -2.36708483      -1.03930573        6 
C      -3.35616552       1.40623993      -0.03808496        6 
C       1.52208505       1.19639152      -0.24499452        6 
C       2.78873370       1.03071885       0.63782817        6 
C       2.85843444      -0.50534438       0.81231110        6 
C       1.62383071      -0.97611931      -0.00617136        6 
O       1.55389599       0.00565207      -1.05085096        8 
H       0.46147550       1.39152802       1.66789715        1 
H       0.56277222      -0.86128319       1.90222484        1 
H      -3.20389578      -1.79786896      -0.68601626        1 
H      -3.36667326       1.68453981      -1.09301025        1 
H       3.65868884       1.40665679       0.09694881        1 
H       2.71683712       1.58167650       1.57753446        1 
H       3.76801465      -0.91447590       0.36937066        1 
H       2.81627942      -0.83366490       1.85278332        1 
H      -2.35437891      -2.44759241      -2.12422893        1 
H      -2.35752348      -3.35713103      -0.58040733        1 
H      -3.54060027       2.29172699       0.57112082        1 
H      -4.09876882       0.63824347       0.16650287        1 
C       1.75487331      -2.37598713      -0.56950693        6 
H       2.71417006      -2.47561724      -1.08206830        1 
H       1.72218470      -3.11227401       0.23908115        1 
H       0.95528444      -2.59327660      -1.27395864        1 
C       1.54390031       2.41697217      -1.13891514        6 
H       2.47306812       2.40328222      -1.71372998        1 
H       0.70385658       2.42661792      -1.83143936        1 
H       1.50369580       3.33338161      -0.54927555        1 
