35
Lattice="0.0 0.0 0.0 0.0 0.0 0.0 0.0 0.0 0.0" Properties=species:S:1:pos:R:3:Z:I:1 pbc="F F F"
C      -0.66250030       0.34550260      -0.75593101        6 
C       0.42659018      -0.77623681      -0.62032623        6 
C      -0.10597118       1.73675224      -0.47693412        6 
C       1.67333859      -0.33559580       0.12705896        6 
O      -0.94683732       2.55287511       0.17174231        8 
O       0.97402296       2.09198501      -0.88805905        8 
O       2.77823043      -0.57079093      -0.60985323        8 
O       1.70199644       0.09889109       1.25203429        8 
C       4.02288748      -0.16322400      -0.01366398        6 
C      -0.46921591       3.89191018       0.41176004        6 
C      -1.86122016      -0.27932080       0.05342376        6 
C      -2.47787299      -1.36513747      -0.87636693        6 
C      -1.40424230      -2.48179226      -0.82028591        6 
C      -0.36832314      -1.87367529       0.16399250        6 
O      -1.18993291      -1.08685532       1.03618710        8 
H      -0.95497024       0.41801821      -1.80833148        1 
H       0.74072020      -1.14218938      -1.59601795        1 
H       4.17930034      -0.67493442       0.93727003        1 
H      -0.25588404       4.39538034      -0.53201210        1 
H      -3.42381590      -1.70730331      -0.45316380        1 
H      -2.67717553      -0.99568406      -1.88451444        1 
H      -1.81116399      -3.40547635      -0.40451244        1 
H      -0.96501395      -2.71727768      -1.79194424        1 
H       4.79243619      -0.43971056      -0.73105339        1 
H       4.02058014       0.91509717       0.15170552        1 
H       0.43505042       3.86358122       1.02031162        1 
H      -1.27600625       4.39223033       0.94263891        1 
C       0.44581635      -2.88216116       0.94433103        6 
H      -0.22348085      -3.57567981       1.45805961        1 
H       1.08323398      -3.45697972       0.26693442        1 
H       1.07119054      -2.38802450       1.68785578        1 
C      -2.88725709       0.60846203       0.72512762        6 
H      -3.66417728      -0.02267359       1.16303982        1 
H      -2.43503252       1.20939921       1.51024542        1 
H      -3.35065237       1.28149770       0.00109413        1 
