35
Lattice="0.0 0.0 0.0 0.0 0.0 0.0 0.0 0.0 0.0" Properties=species:S:1:pos:R:3:Z:I:1 pbc="F F F"
C      -0.36184585       0.67560409      -0.87224172        6 
C      -0.31607567      -0.88987042      -0.72413708        6 
C       0.92862954       1.43602043      -0.59596659        6 
C       0.96042827      -1.63330996      -0.36302037        6 
O       1.13894425       1.69803634       0.70490340        8 
O       1.68386818       1.77795954      -1.47504271        8 
O       2.02565864      -0.85601692      -0.12828939        8 
O       1.00032135      -2.84028603      -0.29881019        8 
C       3.25779166      -1.53499329       0.17871881        6 
C       2.37416452       2.35947857       1.01825510        6 
C      -1.60770477       1.02741369       0.00601970        6 
C      -2.86512447       0.51257791      -0.75642310        6 
C      -2.81597578      -1.00835813      -0.47349948        6 
C      -1.49222192      -1.13190010       0.32146016        6 
O      -1.48690754       0.08544119       1.08331682        8 
H      -0.56469764       0.91388130      -1.91710196        1 
H      -0.60379335      -1.34615165      -1.67283897        1 
H       3.51112986      -2.23881333      -0.61457977        1 
H       2.41533012       3.34334075       0.54754879        1 
H      -3.76319764       0.96770191      -0.33550456        1 
H      -2.83274503       0.76386031      -1.81861320        1 
H      -3.64780229      -1.31921862       0.16131870        1 
H      -2.82535964      -1.63007674      -1.37020764        1 
H       4.00831906      -0.75135246       0.25084443        1 
H       3.16718761      -2.07194630       1.12396008        1 
H       3.22000727       1.76415692       0.67115614        1 
H       2.38725266       2.45163690       2.10212459        1 
C      -1.41112831      -2.32237649       1.25002279        6 
H      -2.28848064      -2.32181278       1.90085622        1 
H      -1.38348552      -3.25470069       0.68554201        1 
H      -0.51780538      -2.27931362       1.87421804        1 
C      -1.74062821       2.44745971       0.51454684        6 
H      -2.67465032       2.55210238       1.07099883        1 
H      -0.91148681       2.71495105       1.16533899        1 
H      -1.76732431       3.14457653      -0.32837325        1 
