35
Lattice="0.0 0.0 0.0 0.0 0.0 0.0 0.0 0.0 0.0" Properties=species:S:1:pos:R:3:Z:I:1 pbc="F F F"
C       0.14586782       0.89839768       0.59737674        6 
C       0.35779798      -0.61231745       0.88484806        6 
C      -1.26160612       1.40724148       0.35607272        6 
C      -0.61319623      -1.58541138       0.24209797        6 
O      -2.18982676       0.56854983       0.86270114        8 
O      -1.53232143       2.50389736      -0.06959549        8 
O      -1.04915379      -1.17625902      -0.96200772        8 
O      -0.88607692      -2.66201065       0.71949326        8 
C      -1.93833396      -2.06771501      -1.65359855        6 
C      -3.55719399       1.00996034       0.78984119        6 
C       1.29100207       1.22215159      -0.44279181        6 
C       2.55263209       1.48710404       0.41219924        6 
C       2.79502088       0.08138731       1.02674220        6 
C       1.77952899      -0.80018232       0.23635819        6 
O       1.61176465      -0.07211170      -0.98837180        8 
H       0.39508031       1.43484519       1.52034279        1 
H       0.36301462      -0.84406077       1.94877024        1 
H      -2.84511758      -2.23117566      -1.06794927        1 
H      -3.85495744       1.14898905      -0.25076183        1 
H       3.37612314       1.77838717      -0.24280904        1 
H       2.40850909       2.27690747       1.15212511        1 
H       3.81315440      -0.26749504       0.84783841        1 
H       2.61659621       0.04179928       2.10381143        1 
H      -2.17241829      -1.57138090      -2.59286046        1 
H      -1.45390394      -3.02778137      -1.83796108        1 
H      -3.68590202       1.95015843       1.32808642        1 
H      -4.14082198       0.21751049       1.25305754        1 
C       2.22661143      -2.21976528      -0.03208411        6 
H       3.21581032      -2.21261920      -0.49463619        1 
H       2.27744075      -2.78511897       0.90124629        1 
H       1.53573249      -2.73407326      -0.70175305        1 
C       1.01187264       2.20192384      -1.55632496        6 
H       1.89323593       2.27279285      -2.19857001        1 
H       0.16390429       1.87522220      -2.15926838        1 
H       0.77915070       3.18851171      -1.15538973        1 
