35
Lattice="0.0 0.0 0.0 0.0 0.0 0.0 0.0 0.0 0.0" Properties=species:S:1:pos:R:3:Z:I:1 pbc="F F F"
C      -0.35502826       0.61973020      -0.86349654        6 
C      -0.22061245      -0.92197540      -0.61271831        6 
C       0.78612275       1.48757991      -0.36413361        6 
C       1.14883974      -1.44504484      -0.20829444        6 
O       1.05479897       1.28431154       0.94051360        8 
O       1.38519415       2.27701555      -1.05351133        8 
O       2.12171649      -0.73927352      -0.82300637        8 
O       1.36982208      -2.43246957       0.44675390        8 
C       3.47386414      -1.17380822      -0.59709070        6 
C       2.16195382       2.02524081       1.47829210        6 
C      -1.71140440       0.91446841      -0.13805881        6 
C      -2.84121149       0.25801604      -0.97931049        6 
C      -2.70091377      -1.23588270      -0.58924625        6 
C      -1.45020032      -1.20687507       0.33031788        6 
O      -1.62832086       0.05272410       1.00565126        8 
H      -0.42624082       0.84033022      -1.92726078        1 
H      -0.38849461      -1.43625456      -1.56537202        1 
H       3.61538532      -2.18950689      -0.96956560        1 
H       1.97495598       3.09840800       1.41382931        1 
H      -3.81023263       0.66111794      -0.67943271        1 
H      -2.71904037       0.44519736      -2.04825353        1 
H      -3.56199834      -1.57416933      -0.01006328        1 
H      -2.58585962      -1.90604069      -1.44389310        1 
H       4.09607550      -0.47160204      -1.14728542        1 
H       3.70802784      -1.14630742       0.46824100        1 
H       3.07602829       1.78960541       0.93007075        1 
H       2.24340426       1.71190851       2.51672320        1 
C      -1.37734586      -2.33078630       1.33963382        6 
H      -2.31631697      -2.36032571       1.89777381        1 
H      -1.23222244      -3.29079925       0.84131499        1 
H      -0.55252338      -2.18686703       2.03440752        1 
C      -1.96279959       2.34894717       0.27184448        6 
H      -2.92596981       2.42516633       0.78079072        1 
H      -1.18722702       2.70683431       0.95038549        1 
H      -1.98288498       2.99609783      -0.60877074        1 
