35
Lattice="0.0 0.0 0.0 0.0 0.0 0.0 0.0 0.0 0.0" Properties=species:S:1:pos:R:3:Z:I:1 pbc="F F F"
C      -0.59421223       0.51056955       0.57539611        6 
C       0.75918073      -0.16687329       0.94141115        6 
C      -1.82260243      -0.32408181       0.26496740        6 
C       1.09004614      -1.58099593       0.49565048        6 
O      -2.90091979       0.27593167       0.84333282        8 
O      -1.92556036      -1.31778417      -0.40509622        8 
O       0.71632422      -1.85790956      -0.75296415        8 
O       1.77106853      -2.32058550       1.17398437        8 
C       1.04972184      -3.16266402      -1.25193993        6 
C      -4.17521817      -0.33994044       0.58574387        6 
C      -0.17154452       1.53712555      -0.56061675        6 
C       0.32651643       2.79390998       0.18742192        6 
C       1.60004074       2.23245634       0.87492722        6 
C       1.74254097       0.82934331       0.20649856        6 
O       1.06524669       1.00128947      -1.04624350        8 
H      -0.89494315       1.09681093       1.44275083        1 
H       0.92406503      -0.15591698       2.01791130        1 
H       0.59933821      -3.93461268      -0.62636089        1 
H      -4.18317100      -1.36928113       0.94760899        1 
H       0.57769650       3.56896084      -0.53997787        1 
H      -0.41039761       3.20085891       0.88270426        1 
H       2.47857671       2.84325126       0.66149740        1 
H       1.50587227       2.15563968       1.96025993        1 
H       0.63645761      -3.19776729      -2.25722173        1 
H       2.13222472      -3.30151720      -1.27313064        1 
H      -4.39372743      -0.33634357      -0.48357679        1 
H      -4.90259285       0.26168418       1.12665357        1 
C       3.16363123       0.35673719      -0.00321454        6 
H       3.73719446       1.13049555      -0.51780504        1 
H       3.63901556       0.14506788       0.95701035        1 
H       3.19303406      -0.55123356      -0.60676395        1 
C      -1.14960766       1.75331722      -1.69113652        6 
H      -0.71946663       2.43397079      -2.42908644        1 
H      -1.38521727       0.80835978      -2.18429219        1 
H      -2.07573617       2.19406163      -1.31339761        1 
