35
Lattice="0.0 0.0 0.0 0.0 0.0 0.0 0.0 0.0 0.0" Properties=species:S:1:pos:R:3:Z:I:1 pbc="F F F"
C      -0.01517382       0.61365506      -0.71535257        6 
C      -0.38208291      -0.88028687      -0.54638109        6 
C       1.08216986       1.08850747       0.22299928        6 
C       0.72386416      -1.88597893      -0.28724755        6 
O       1.56507266       2.28175354      -0.19616506        8 
O       1.50497040       0.50677861       1.18841898        8 
O       1.91280620      -1.43959342      -0.74051670        8 
O       0.54312708      -3.02626773       0.06642644        8 
C       3.01395167      -2.35901475      -0.63848462        6 
C       2.59740907       2.86482856       0.61912717        6 
C      -1.37822759       1.25038691      -0.23516877        6 
C      -2.51704026       0.76395559      -1.18626108        6 
C      -2.84979673      -0.63695475      -0.60571815        6 
C      -1.66711168      -0.83398776       0.37021258        6 
O      -1.60011328       0.48271301       0.95668970        8 
H       0.24126127       0.89014459      -1.73692014        1 
H      -0.71696859      -1.22616134      -1.53222128        1 
H       2.81302914      -3.26509048      -1.21265609        1 
H       3.45840043       2.19752074       0.67977882        1 
H      -3.37098660       1.44065394      -1.13125775        1 
H      -2.18818755       0.73251196      -2.22786119        1 
H      -3.78242525      -0.61788447      -0.03850774        1 
H      -2.92052969      -1.42362838      -1.36012368        1 
H       3.87224247      -1.82828307      -1.04471633        1 
H       3.18766666      -2.62345562       0.40536046        1 
H       2.22511903       3.05991358       1.62634139        1 
H       2.86673576       3.79544526       0.12436041        1 
C      -1.83413400      -1.87801321       1.44598635        6 
H      -2.73711559      -1.65773168       2.02120990        1 
H      -1.91930464      -2.87320018       1.00934747        1 
H      -0.97771253      -1.87860931       2.12084177        1 
C      -1.40345234       2.73118337       0.07330936        6 
H      -2.40411058       3.01195797       0.40894610        1 
H      -0.69368930       2.98873878       0.85957290        1 
H      -1.15464789       3.31335535      -0.81675878        1 
