35
Lattice="0.0 0.0 0.0 0.0 0.0 0.0 0.0 0.0 0.0" Properties=species:S:1:pos:R:3:Z:I:1 pbc="F F F"
C       0.04070251       0.66739442       0.63515496        6 
C       0.45514452      -0.84345968       0.66569051        6 
C      -1.31591669       1.00369725       0.05968758        6 
C      -0.49409730      -1.76519451      -0.08933455        6 
O      -1.85767285       2.04289137       0.74134110        8 
O      -1.85387183       0.49295506      -0.88989052        8 
O      -1.50917385      -2.12216480       0.73695920        8 
O      -0.41728041      -2.12249732      -1.23346710        8 
C      -2.58006220      -2.86016718       0.11909472        6 
C      -3.11969808       2.52608382       0.24543013        6 
C       1.23799852       1.30913036      -0.18060593        6 
C       2.40004878       1.47304353       0.82763843        6 
C       2.79612447      -0.00669866       1.06739810        6 
C       1.88729745      -0.76117496       0.04797020        6 
O       1.69581966       0.22151604      -0.98659765        8 
H       0.04493703       1.06950576       1.64725809        1 
H       0.48161453      -1.19311917       1.69833800        1 
H      -2.21253364      -3.80447182      -0.28549676        1 
H      -3.87317523       1.73812112       0.28891405        1 
H       3.21211356       2.02948490       0.35482675        1 
H       2.10407160       2.00758761       1.73203882        1 
H       3.84636436      -0.18341706       0.83113388        1 
H       2.62580458      -0.34001459       2.09377704        1 
H      -3.30419045      -3.03966421       0.91112143        1 
H      -3.02167214      -2.26917012      -0.68467830        1 
H      -3.01881795       2.86787183      -0.78588751        1 
H      -3.39111883       3.35217415       0.89897186        1 
C       2.49386337      -2.03197841      -0.50726178        6 
H       3.50030958      -1.82489855      -0.87795034        1 
H       2.57030161      -2.78681309       0.28141657        1 
H       1.88875273      -2.42926686      -1.31879896        1 
C       0.91440360       2.51485014      -1.03301612        6 
H       1.81121656       2.84107671      -1.56373917        1 
H       0.14709543       2.27362471      -1.77131898        1 
H       0.55979887       3.33980239      -0.41006900        1 
