35
Lattice="0.0 0.0 0.0 0.0 0.0 0.0 0.0 0.0 0.0" Properties=species:S:1:pos:R:3:Z:I:1 pbc="F F F"
C      -0.85174014      -0.05636191      -0.80069574        6 
C       0.67074773      -0.42738060      -0.71201941        6 
C      -1.13457913       1.44074430      -0.73357039        6 
C       1.56429894       0.61815954      -0.05640935        6 
O      -1.62443576       1.86922436       0.43699004        8 
O      -0.94484110       2.15980928      -1.68641097        8 
O       2.84395219       0.18555673      -0.02845178        8 
O       1.24952932       1.73031360       0.28399779        8 
C       3.81451067       1.11830495       0.48233831        6 
C      -1.76959647       3.29464028       0.56687206        6 
C      -1.51165031      -1.08965575       0.18044451        6 
C      -1.63348582      -2.40846851      -0.62527617        6 
C      -0.14843217      -2.81394242      -0.78053379        6 
C       0.57114479      -1.76535243       0.12011141        6 
O      -0.43564877      -1.41300987       1.08339014        8 
H      -1.17584616      -0.29720795      -1.81533930        1 
H       1.09953346      -0.61236769      -1.69805220        1 
H       3.60001967       1.35961097       1.52464592        1 
H      -2.44557720       3.68419215      -0.19574193        1 
H      -2.18038936      -3.14111581      -0.02906200        1 
H      -2.15925816      -2.27949182      -1.57362714        1 
H       0.03462975      -3.82101159      -0.40320247        1 
H       0.20778088      -2.77581472      -1.81196917        1 
H       4.77398709       0.61319451       0.39624149        1 
H       3.80602701       2.03589313      -0.10744314        1 
H      -0.79347859       3.77109641       0.46926517        1 
H      -2.17920932       3.45378863       1.56212139        1 
C       1.79337387      -2.30462212       0.83289599        6 
H       1.51828402      -3.23068409       1.34282846        1 
H       2.59557476      -2.51674776       0.12414702        1 
H       2.17014573      -1.60225795       1.57513836        1 
C      -2.75887236      -0.70997269       0.94787245        6 
H      -3.11706378      -1.57918838       1.50466941        1 
H      -2.56103055       0.10388432       1.64041357        1 
H      -3.54823392      -0.39260270       0.26106500        1 
