35
Lattice="0.0 0.0 0.0 0.0 0.0 0.0 0.0 0.0 0.0" Properties=species:S:1:pos:R:3:Z:I:1 pbc="F F F"
C      -0.74725153       0.24541720       0.68213284        6 
C       0.80171351       0.12569852       0.70113096        6 
C      -1.46202658      -1.08278565       0.49938143        6 
C       1.34192671      -1.02086407      -0.13393818        6 
O      -2.71999543      -0.94227273       0.04511711        8 
O      -0.99347421      -2.14491711       0.83047554        8 
O       2.43776911      -1.55123783       0.45486137        8 
O       0.91216019      -1.39145370      -1.19624335        8 
C       3.05783022      -2.64195102      -0.24969715        6 
C      -3.48600677      -2.15684790      -0.07762564        6 
C      -0.97475526       1.50577826      -0.24609570        6 
C      -0.76215199       2.73473608       0.67587526        6 
C       0.76076122       2.64339705       0.96328751        6 
C       1.19594721       1.48274880       0.02103188        6 
O       0.22832597       1.55025799      -1.03456124        8 
H      -1.07401796       0.52418075       1.69102995        1 
H       1.20653372       0.04260328       1.70818863        1 
H       3.37521028      -2.32564875      -1.24480117        1 
H      -3.59779373      -2.63715071       0.89554583        1 
H      -1.00435396       3.64414648       0.12232532        1 
H      -1.38458240       2.70789610       1.57270931        1 
H       1.27723527       3.56360651       0.68530414        1 
H       0.99595796       2.43276898       2.00890003        1 
H       3.91651056      -2.92692964       0.35442500        1 
H       2.35917902      -3.47476486      -0.34293807        1 
H      -2.99403224      -2.84530988      -0.76552141        1 
H      -4.45353335      -1.84839069      -0.46774655        1 
C       2.60197036       1.58064001      -0.52827533        6 
H       2.75368682       2.55973804      -0.98756439        1 
H       3.33421317       1.45245797       0.27256424        1 
H       2.77870558       0.81664842      -1.28729641        1 
C      -2.18049831       1.57620296      -1.15458131        6 
H      -2.12607379       2.49981297      -1.73585516        1 
H      -2.20643668       0.72987178      -1.84002892        1 
H      -3.10477069       1.57602283      -0.57530801        1 
