35
Lattice="0.0 0.0 0.0 0.0 0.0 0.0 0.0 0.0 0.0" Properties=species:S:1:pos:R:3:Z:I:1 pbc="F F F"
C      -0.49474759       0.60722777       0.62983895        6 
C       0.79319435      -0.22414683       0.93789977        6 
C      -1.75251897      -0.13930498       0.23687549        6 
C       0.75686692      -1.69532130       0.54556152        6 
O      -2.83021383       0.50267195       0.75341037        8 
O      -1.85171306      -1.11788804      -0.45934508        8 
O       0.80573276      -1.90180355      -0.77405106        8 
O       0.75597115      -2.58450994       1.36736470        8 
C       0.63469186      -3.25884904      -1.21391481        6 
C      -4.11611824      -0.04002902       0.39982840        6 
C       0.02704864       1.63190278      -0.46124169        6 
C       0.73255591       2.75943218       0.32804947        6 
C       1.97556910       2.00651019       0.87061938        6 
C       1.85796967       0.62304065       0.15901103        6 
O       1.14226729       0.95026647      -1.04375711        8 
H      -0.76905657       1.17024796       1.52090777        1 
H       0.99202754      -0.22605993       2.00867764        1 
H      -0.36516210      -3.60544020      -0.94861384        1 
H      -4.20457054      -1.06978077       0.74887770        1 
H       1.02326073       3.55460802      -0.36174526        1 
H       0.10090511       3.19404208       1.10448716        1 
H       2.90330501       2.49760286       0.57366808        1 
H       1.98435983       1.90799171       1.95832808        1 
H       0.75025754      -3.22696640      -2.29506313        1 
H       1.38274201      -3.91203474      -0.76223736        1 
H      -4.25625090      -0.01446657      -0.68205641        1 
H      -4.84514492       0.59672737       0.89608069        1 
C       3.18174840      -0.04296053      -0.14625570        6 
H       3.83321645       0.65344163      -0.67879739        1 
H       3.67843515      -0.33422748       0.78361065        1 
H       3.04423095      -0.92954434      -0.76389047        1 
C      -0.95495230       2.06210310      -1.52601329        6 
H      -0.46103570       2.73108556      -2.23383348        1 
H      -1.33264292       1.19724606      -2.07529391        1 
H      -1.79908624       2.59276739      -1.07858276        1 
