35
Lattice="0.0 0.0 0.0 0.0 0.0 0.0 0.0 0.0 0.0" Properties=species:S:1:pos:R:3:Z:I:1 pbc="F F F"
C      -0.25400228       0.91942990       0.51914885        6 
C       0.43005284      -0.48719627       0.70520662        6 
C      -1.68939797       0.89885368       0.01755530        6 
C      -0.31127956      -1.63031844       0.01102803        6 
O      -2.52006130       0.68576475       1.06385226        8 
O      -2.07477040       1.14361201      -1.09721342        8 
O       0.48884603      -2.66882448      -0.28458129        8 
O      -1.50826072      -1.67890910      -0.13721147        8 
C      -0.15884894      -3.83145439      -0.83819592        6 
C      -3.90505631       0.49598621       0.73031353        6 
C       0.81957814       1.70677473      -0.31172275        6 
C       1.84775249       2.21731740       0.72506026        6 
C       2.48359799       0.88833140       1.19733478        6 
C       1.87683161      -0.14583945       0.19229217        6 
O       1.56820316       0.65914749      -0.95836439        8 
H      -0.33263224       1.37229851       1.50896436        1 
H       0.44407642      -0.77204072       1.76097937        1 
H      -0.67524381      -3.57399893      -1.76338456        1 
H      -4.01320893      -0.39708855       0.11273292        1 
H       2.58112295       2.84949356       0.22051389        1 
H       1.38755394       2.79950913       1.52588628        1 
H       3.57024966       0.90679826       1.10636965        1 
H       2.24592990       0.63602842       2.23347437        1 
H       0.64297575      -4.54139480      -1.02877148        1 
H      -0.87675914      -4.24174861      -0.12656952        1 
H      -4.29571089       1.36210097       0.19409881        1 
H      -4.41937809       0.36932217       1.68081220        1 
C       2.85296109      -1.24262701      -0.18576115        6 
H       3.81537559      -0.78449981      -0.42497039        1 
H       2.99561333      -1.93855476       0.64380794        1 
H       2.51010222      -1.80529866      -1.04933380        1 
C       0.36459359       2.73906491      -1.31890657        6 
H       1.24276529       3.20418589      -1.77300727        1 
H      -0.25227872       2.29140537      -2.09428133        1 
H      -0.22273975       3.51833645      -0.82570878        1 
