35
Lattice="0.0 0.0 0.0 0.0 0.0 0.0 0.0 0.0 0.0" Properties=species:S:1:pos:R:3:Z:I:1 pbc="F F F"
C      -0.86488194      -0.02732427      -0.82116695        6 
C       0.64503414      -0.44198921      -0.71564857        6 
C      -1.10049937       1.47516714      -0.69782921        6 
C       1.57841047       0.57968839      -0.08729590        6 
O      -1.59676662       1.87480907       0.47959352        8 
O      -0.86614912       2.22421004      -1.61740767        8 
O       2.85900037       0.16228140      -0.20701863        8 
O       1.28377241       1.65052264       0.37951827        8 
C       3.86430926       1.05385086       0.30910155        6 
C      -1.68430152       3.29847838       0.66851407        6 
C      -1.56329119      -1.06429625       0.12431336        6 
C      -1.64205050      -2.38957628      -0.68207045        6 
C      -0.15996415      -2.83458826      -0.70708466        6 
C       0.51547725      -1.74637856       0.17256978        6 
O      -0.53049259      -1.37002492       1.08065946        8 
H      -1.18209729      -0.22535062      -1.84682323        1 
H       1.06640650      -0.68437018      -1.69110248        1 
H       3.73347784       1.19600220       1.38318627        1 
H      -2.32530495       3.74956487      -0.09022479        1 
H      -2.25850241      -3.10625097      -0.13685419        1 
H      -2.07984156      -2.25307713      -1.67282040        1 
H      -0.02946923      -3.81558915      -0.24694570        1 
H       0.27098834      -2.87744145      -1.70951385        1 
H       4.81550092       0.56900791       0.10090779        1 
H       3.80655034       2.02165688      -0.19068299        1 
H      -0.68629422       3.73440375       0.61309317        1 
H      -2.10928897       3.43213213       1.66106400        1 
C       1.72165391      -2.22929420       0.94879920        6 
H       1.44081655      -3.11934379       1.51646379        1 
H       2.54083300      -2.48454190       0.27474198        1 
H       2.07785092      -1.47505857       1.65130212        1 
C      -2.85309840      -0.69009760       0.82174882        6 
H      -3.22945557      -1.55527458       1.37273095        1 
H      -2.70189147       0.13662137       1.51025767        1 
H      -3.60917393      -0.39595526       0.08830036        1 
