35
Lattice="0.0 0.0 0.0 0.0 0.0 0.0 0.0 0.0 0.0" Properties=species:S:1:pos:R:3:Z:I:1 pbc="F F F"
C      -0.37715702       0.70177778      -0.89739306        6 
C      -0.35617233      -0.85474579      -0.73224677        6 
C       0.88487655       1.47575342      -0.54040826        6 
C       0.93245085      -1.63329191      -0.55610195        6 
O       1.12760007       1.55326087       0.77563756        8 
O       1.55870952       2.03701879      -1.37457809        8 
O       1.93115205      -0.96184213       0.03577277        8 
O       1.03248695      -2.78584227      -0.91125894        8 
C       3.16375374      -1.68485830       0.21333045        6 
C       2.32672417       2.24701130       1.15014067        6 
C      -1.61506328       1.05195969       0.00023682        6 
C      -2.88273416       0.44367770      -0.67800303        6 
C      -2.80185856      -1.04396534      -0.24806048        6 
C      -1.41501294      -1.07630556       0.43343444        6 
O      -1.40772245       0.18000054       1.12307268        8 
H      -0.56108015       0.95754534      -1.94040298        1 
H      -0.76983504      -1.29754091      -1.63822524        1 
H       3.56792136      -1.98796129      -0.75332519        1 
H       2.29268155       3.28617764       0.81812941        1 
H      -3.78113382       0.92614974      -0.29023385        1 
H      -2.87288864       0.58248499      -1.76109507        1 
H      -3.56927764      -1.28537123       0.49020028        1 
H      -2.88451233      -1.75217971      -1.07436779        1 
H       3.83615279      -0.98925245       0.71011998        1 
H       3.00001795      -2.56982900       0.82952686        1 
H       3.19768153       1.76092993       0.70682892        1 
H       2.36675921       2.19103936       2.23583753        1 
C      -1.15979938      -2.21912175       1.38695539        6 
H      -1.94556860      -2.24919114       2.14501433        1 
H      -1.14952397      -3.16960948       0.85027354        1 
H      -0.19953012      -2.09781978       1.89313302        1 
C      -1.77322396       2.49361526       0.43310476        6 
H      -2.66731940       2.59772849       1.05169438        1 
H      -0.91344941       2.83100793       1.00986056        1 
H      -1.88645984       3.13753058      -0.44353028        1 
