35
Lattice="0.0 0.0 0.0 0.0 0.0 0.0 0.0 0.0 0.0" Properties=species:S:1:pos:R:3:Z:I:1 pbc="F F F"
C      -0.57936162       0.71969777      -0.75250156        6 
C      -0.05949510      -0.77081454      -0.80729103        6 
C       0.49647331       1.79024537      -0.67507969        6 
C       1.39266208      -0.92252697      -0.34541280        6 
O       0.91660692       2.03138254       0.58126665        8 
O       0.96719101       2.31934168      -1.65088787        8 
O       1.61181836      -1.97353385       0.46006759        8 
O       2.28432000      -0.20462675      -0.72872933        8 
C       2.97779509      -2.18100761       0.86875884        6 
C       2.06786587       2.88783584       0.69830185        6 
C      -1.71579681       0.62928560       0.33556639        6 
C      -2.96473364       0.12809601      -0.42394716        6 
C      -2.51850056      -1.30072122      -0.80992758        6 
C      -1.19570999      -1.47262059       0.01143839        6 
O      -1.36152734      -0.54082487       1.09598605        8 
H      -1.04468677       0.93344447      -1.71534153        1 
H      -0.04874697      -1.11576537      -1.84500839        1 
H       3.33910909      -1.31903526       1.43083877        1 
H       1.86129698       3.87020062       0.27147415        1 
H      -3.81565374       0.10533961       0.26019031        1 
H      -3.22802090       0.75777458      -1.27610088        1 
H      -3.24980433      -2.04993513      -0.50502648        1 
H      -2.34921984      -1.42495649      -1.88210847        1 
H       2.95685744      -3.06810458       1.49801276        1 
H       3.61705543      -2.33830831      -0.00086665        1 
H       2.91330561       2.43470905       0.17905002        1 
H       2.26347484       2.96583606       1.76575896        1 
C      -1.02140848      -2.88553235       0.53429516        6 
H      -1.96787300      -3.22102211       0.96443207        1 
H      -0.75676277      -3.56365932      -0.28149863        1 
H      -0.24755528      -2.94327761       1.29294816        1 
C      -1.95114608       1.81429214       1.24469003        6 
H      -2.80024563       1.60482385       1.89946483        1 
H      -1.07372943       2.02324740       1.85241750        1 
H      -2.18568206       2.70444812       0.65406435        1 
