35
Lattice="0.0 0.0 0.0 0.0 0.0 0.0 0.0 0.0 0.0" Properties=species:S:1:pos:R:3:Z:I:1 pbc="F F F"
C      -0.81822147       0.20311073      -0.93090417        6 
C       0.51020592      -0.52897518      -0.62393643        6 
C      -1.02633519       1.59930944      -0.36404593        6 
C       1.77323764       0.30690421      -0.55675092        6 
O      -0.41358270       1.79586018       0.80888846        8 
O      -1.79706810       2.39068482      -0.85899505        8 
O       2.84971324      -0.50434502      -0.41726045        8 
O       1.86665089       1.50238754      -0.67087656        8 
C       4.13206077       0.14770280      -0.37816518        6 
C      -0.59743454       3.08548849       1.41339757        6 
C      -1.81017041      -0.77714126      -0.19228459        6 
C      -1.69481264      -2.19093583      -0.84735959        6 
C      -0.43716848      -2.77635442      -0.14787322        6 
C       0.10593853      -1.51377012       0.55774231        6 
O      -1.11774178      -0.94879510       1.05388930        8 
H      -1.02869244       0.26384174      -1.99786869        1 
H       0.72340545      -1.16978460      -1.48594040        1 
H       4.18079745       0.84648221       0.45832227        1 
H      -1.65559640       3.27657699       1.59901900        1 
H      -2.58807017      -2.78010960      -0.63478640        1 
H      -1.59364617      -2.12687805      -1.93327950        1 
H      -0.71185716      -3.51850237       0.60487193        1 
H       0.28165540      -3.22981431      -0.83359469        1 
H       4.85931383      -0.65143494      -0.25208798        1 
H       4.31363371       0.68927870      -1.30787895        1 
H      -0.19660422       3.86545648       0.76400936        1 
H      -0.04436207       3.04721335       2.34917715        1 
C       1.08251621      -1.72125731       1.68947328        6 
H       0.62042443      -2.34927525       2.45483479        1 
H       1.99035358      -2.20695746       1.33116140        1 
H       1.35504736      -0.76654535       2.14404757        1 
C      -3.22454466      -0.29239447       0.03240094        6 
H      -3.79004767      -1.05323424       0.57494855        1 
H      -3.24438770       0.63240286       0.60938954        1 
H      -3.71590700      -0.10383773      -0.92470689        1 
