35
Lattice="0.0 0.0 0.0 0.0 0.0 0.0 0.0 0.0 0.0" Properties=species:S:1:pos:R:3:Z:I:1 pbc="F F F"
C       0.15781873       0.91297737       0.50936624        6 
C       0.20201333      -0.64534384       0.77399237        6 
C      -1.18706117       1.53734905       0.17798428        6 
C      -0.95973685      -1.38958566       0.10567202        6 
O      -2.02814705       1.33694477       1.20839451        8 
O      -1.44808633       2.25178211      -0.75950717        8 
O      -0.61970946      -2.06901059      -1.00273196        8 
O      -2.10006406      -1.32351714       0.49920337        8 
C      -1.69748055      -2.71563940      -1.70487923        6 
C      -3.37604939       1.80623282       1.04101742        6 
C       1.40710373       1.11931517      -0.43083865        6 
C       2.60436582       1.26603869       0.53741391        6 
C       2.64117165      -0.14664809       1.16955090        6 
C       1.64214068      -0.94528910       0.26532689        6 
O       1.65235936      -0.19782499      -0.96381399        8 
H       0.38454157       1.38358589       1.47009196        1 
H       0.08715101      -0.83930306       1.84143529        1 
H      -2.42664931      -1.97779904      -2.04272828        1 
H      -3.83747116       1.31770053       0.18169367        1 
H       3.50965279       1.46684889      -0.03905871        1 
H       2.47140987       2.07305824       1.26111896        1 
H       3.63586747      -0.59026864       1.11460358        1 
H       2.33540124      -0.15822897       2.21874831        1 
H      -1.23031768      -3.20792948      -2.55503747        1 
H      -2.19409102      -3.44285081      -1.06090030        1 
H      -3.39371290       2.88829520       0.90060760        1 
H      -3.89371457       1.52599919       1.95535686        1 
C       2.06108410      -2.38757966       0.06031322        6 
H       3.10164226      -2.41829846      -0.27079507        1 
H       1.99250972      -2.93191067       1.00740093        1 
H       1.44210116      -2.88871494      -0.67789496        1 
C       1.34455802       2.13041694      -1.55269724        6 
H       2.30066163       2.12572821      -2.08179773        1 
H       0.54330807       1.89829458      -2.25116715        1 
H       1.16478537       3.13304640      -1.15997160        1 
