35
Lattice="0.0 0.0 0.0 0.0 0.0 0.0 0.0 0.0 0.0" Properties=species:S:1:pos:R:3:Z:I:1 pbc="F F F"
C       0.22317954       0.98642183       0.58872441        6 
C       0.41297916      -0.55450484       0.88057082        6 
C      -1.08365677       1.31141992      -0.12208218        6 
C      -0.81564513      -1.41138527       0.64846678        6 
O      -2.10702721       1.15491800       0.75126690        8 
O      -1.24376807       1.65915712      -1.26277024        8 
O      -1.12655424      -1.52362386      -0.65730364        8 
O      -1.47840119      -1.89498694       1.53416446        8 
C      -2.31502298      -2.27150481      -0.96956254        6 
C      -3.43008640       1.35495949       0.22393562        6 
C       1.52298862       1.28963616      -0.21926001        6 
C       2.71651877       1.16200991       0.77518114        6 
C       2.89961969      -0.37250947       0.87287899        6 
C       1.69996878      -0.87485922       0.03395406        6 
O       1.64991639       0.09887703      -1.01966944        8 
H       0.19873477       1.53212450       1.53328469        1 
H       0.62307177      -0.69221177       1.94067598        1 
H      -3.17917120      -1.84523879      -0.45810477        1 
H      -3.58334945       0.74016269      -0.66418067        1 
H       3.60023222       1.64752060       0.35836217        1 
H       2.50065915       1.63559211       1.73564025        1 
H       3.82847403      -0.69041131       0.39579413        1 
H       2.89322393      -0.75584171       1.89506866        1 
H      -2.42804001      -2.19554828      -2.04854237        1 
H      -2.20018748      -3.31339057      -0.66570362        1 
H      -3.58110553       2.40318295      -0.03986225        1 
H      -4.10755929       1.05836232       1.02138202        1 
C       1.84032581      -2.27547374      -0.52149601        6 
H       2.79677643      -2.37269034      -1.03968274        1 
H       1.81369695      -3.00953268       0.28910984        1 
H       1.03805231      -2.49686373      -1.22384853        1 
C       1.57015152       2.53607661      -1.07784948        6 
H       2.55210817       2.60908670      -1.55088641        1 
H       0.80070591       2.51894588      -1.84519922        1 
H       1.42563114       3.42485128      -0.45602283        1 
