35
Lattice="0.0 0.0 0.0 0.0 0.0 0.0 0.0 0.0 0.0" Properties=species:S:1:pos:R:3:Z:I:1 pbc="F F F"
C      -0.71743317      -0.18314282      -0.63875890        6 
C       0.83768237      -0.17587113      -0.66628570        6 
C      -1.37713840       1.14985734      -0.34035274        6 
C       1.48933132       0.92047644       0.16683349        6 
O      -2.72110015       1.02077693      -0.30599117        8 
O      -0.81714964       2.21273147      -0.23786856        8 
O       2.33161373       1.64718845      -0.60397958        8 
O       1.34203493       1.10403700       1.34687807        8 
C       2.97382722       2.75310356       0.05428148        6 
C      -3.46770918       2.23279729      -0.08635881        6 
C      -1.03199341      -1.45859797       0.25136698        6 
C      -0.92708581      -2.66890285      -0.70827501        6 
C       0.59260710      -2.66967707      -1.02408788        6 
C       1.12969839      -1.58287908      -0.04418228        6 
O       0.16909673      -1.61684932       1.02130191        8 
H      -1.07698566      -0.39991014      -1.64981657        1 
H       1.21717589      -0.09536824      -1.68387746        1 
H       3.56438840       2.40556021       0.90337298        1 
H      -3.28850882       2.94175190      -0.89606231        1 
H      -1.21870644      -3.57564284      -0.17438670        1 
H      -1.56316078      -2.57398141      -1.59104228        1 
H       1.04889020      -3.63472313      -0.79792146        1 
H       0.81991470      -2.43093760      -2.06539463        1 
H       3.61416532       3.20775887      -0.69876343        1 
H       2.22375434       3.46454486       0.40335189        1 
H      -3.18077324       2.68941266       0.86166350        1 
H      -4.51206069       1.92900085      -0.06608568        1 
C       2.53123373      -1.82122990       0.47255395        6 
H       2.60541277      -2.82576923       0.89450935        1 
H       3.25337172      -1.73547538      -0.34415385        1 
H       2.79014496      -1.10131450       1.24948910        1 
C      -2.23149734      -1.44317895       1.17051091        6 
H      -2.24109449      -2.36807845       1.75180596        1 
H      -2.18556993      -0.60050991       1.86197858        1 
H      -3.15820059      -1.37193965       0.60044697        1 
