35
Lattice="0.0 0.0 0.0 0.0 0.0 0.0 0.0 0.0 0.0" Properties=species:S:1:pos:R:3:Z:I:1 pbc="F F F"
C       0.45494727       0.81510954       0.64042942        6 
C       0.10356808      -0.71299823       0.62759950        6 
C      -0.62717604       1.78198703       0.18471553        6 
C      -1.13934249      -1.07189518      -0.16459431        6 
O      -1.85013860       1.32485483       0.53279783        8 
O      -0.44988524       2.87230785      -0.29609472        8 
O      -2.03953832      -1.70208339       0.62500006        8 
O      -1.29708712      -0.91579445      -1.34970129        8 
C      -3.25432816      -2.11466019      -0.02358129        6 
C      -2.96920363       2.16069964       0.18690194        6 
C       1.83760136       0.83383539      -0.11656904        6 
C       2.89412857       0.34069518       0.90855538        6 
C       2.54449665      -1.16502936       1.02314855        6 
C       1.40057200      -1.30738799      -0.02005280        6 
O       1.73204907      -0.30501146      -0.98910897        8 
H       0.61977607       1.12141548       1.67888502        1 
H      -0.03701031      -1.08790174       1.64007262        1 
H      -3.04068153      -2.82029161      -0.82804776        1 
H      -3.03610454       2.26808902      -0.89663140        1 
H       3.89232825       0.48212804       0.49041912        1 
H       2.84822707       0.88040367       1.85683322        1 
H       3.38718854      -1.79408604       0.73154090        1 
H       2.23206080      -1.46881404       2.02434425        1 
H      -3.85274627      -2.58767732       0.75217718        1 
H      -3.77634426      -1.25038064      -0.43796133        1 
H      -2.86743984       3.14555350       0.64435141        1 
H      -3.84484529       1.64521265       0.57553689        1 
C       1.28510446      -2.67289815      -0.66242621        6 
H       2.24994687      -2.96223097      -1.08459487        1 
H       0.99994418      -3.41937912       0.08438824        1 
H       0.54582523      -2.67047933      -1.46343117        1 
C       2.24296058       2.05834918      -0.90566769        6 
H       3.22834549       1.88083323      -1.34360559        1 
H       1.53370527       2.27240345      -1.70277309        1 
H       2.29621364       2.93601570      -0.25938715        1 
