35
Lattice="0.0 0.0 0.0 0.0 0.0 0.0 0.0 0.0 0.0" Properties=species:S:1:pos:R:3:Z:I:1 pbc="F F F"
C      -0.57513199       0.75943221      -0.79130314        6 
C      -0.14863761      -0.76193910      -0.82243818        6 
C       0.55620638       1.74579799      -0.56846339        6 
C       1.33850035      -0.96575543      -0.53820717        6 
O       1.04829611       1.68615428       0.68679003        8 
O       1.00767640       2.45745893      -1.42968237        8 
O       1.61718421      -1.87194321       0.41031993        8 
O       2.19644294      -0.37157307      -1.14667279        8 
C       3.01491484      -2.08614100       0.68557789        6 
C       2.23665457       2.46112159       0.92714755        6 
C      -1.74219661       0.73828146       0.26096840        6 
C      -2.98546961       0.19549118      -0.48411361        6 
C      -2.59356056      -1.28695482      -0.68893965        6 
C      -1.24864783      -1.38718167       0.10140202        6 
O      -1.39980766      -0.37058016       1.10907520        8 
H      -0.96992577       1.03861569      -1.76731837        1 
H      -0.26255920      -1.13396796      -1.84384517        1 
H       3.47873260      -1.15890019       1.02388269        1 
H       2.04276954       3.52304459       0.76836363        1 
H      -3.85996034       0.28599046       0.16323390        1 
H      -3.19187656       0.73290998      -1.41148205        1 
H      -3.33193175      -1.95878632      -0.24966299        1 
H      -2.47595766      -1.56729139      -1.73795373        1 
H       3.04079287      -2.83773552       1.47153228        1 
H       3.53008990      -2.44195397      -0.20746519        1 
H       3.03195409       2.13404513       0.25573613        1 
H       2.50078411       2.27139513       1.96539178        1 
C      -1.03968871      -2.74712368       0.73712081        6 
H      -1.95432417      -3.03820921       1.25876069        1 
H      -0.82973374      -3.49689974      -0.03051664        1 
H      -0.21504051      -2.73732884       1.44314043        1 
C      -1.97974430       1.99447560       1.06981013        6 
H      -2.82878918       1.84287204       1.73983907        1 
H      -1.10383330       2.24850730       1.66458172        1 
H      -2.21160629       2.83229883       0.40601671        1 
