35
Lattice="0.0 0.0 0.0 0.0 0.0 0.0 0.0 0.0 0.0" Properties=species:S:1:pos:R:3:Z:I:1 pbc="F F F"
C       0.12482727       0.94662070       0.49348734        6 
C       0.25727063      -0.59838631       0.80939332        6 
C      -1.25827394       1.40000633       0.06611784        6 
C      -0.89245606      -1.39741927       0.19063281        6 
O      -2.04846910       1.48930764       1.15389179        8 
O      -1.60559634       1.74268275      -1.03777867        8 
O      -0.54317301      -2.18677793      -0.83436005        8 
O      -2.03656677      -1.28552701       0.56652528        8 
C      -1.61751048      -2.88560566      -1.49334352        6 
C      -3.43871786       1.76264141       0.90946149        6 
C       1.36373732       1.19176798      -0.44473321        6 
C       2.55240653       1.41228839       0.52063867        6 
C       2.66909583       0.01246038       1.16749914        6 
C       1.70247024      -0.84651881       0.28559952        6 
O       1.66782070      -0.12128663      -0.95745314        8 
H       0.28861986       1.47685783       1.43337018        1 
H       0.17169300      -0.76305131       1.88487684        1 
H      -2.33994282      -2.17416170      -1.89491292        1 
H      -3.87567980       0.94936562       0.32848637        1 
H       3.44372831       1.65702016      -0.06048671        1 
H       2.37637715       2.21876694       1.23550129        1 
H       3.68442070      -0.38071544       1.10401739        1 
H       2.37704298      -0.00234552       2.22053334        1 
H      -1.14329676      -3.44490223      -2.29666518        1 
H      -2.11991505      -3.55844353      -0.79704258        1 
H      -3.55900920       2.70609291       0.37510320        1 
H      -3.90030593       1.81492590       1.89301764        1 
C       2.19084353      -2.26930218       0.09835786        6 
H       3.23009907      -2.25068353      -0.23770518        1 
H       2.15429940      -2.80364379       1.05281170        1 
H       1.59452112      -2.81175403      -0.62885321        1 
C       1.24822683       2.19141548      -1.57282027        6 
H       2.20683075       2.25498286      -2.09317332        1 
H       0.46961784       1.90503715      -2.27613337        1 
H       1.00072143       3.18072896      -1.17938394        1 
