35
Lattice="0.0 0.0 0.0 0.0 0.0 0.0 0.0 0.0 0.0" Properties=species:S:1:pos:R:3:Z:I:1 pbc="F F F"
C      -0.75339195      -0.16613519      -0.57409527        6 
C       0.78930993      -0.02809112      -0.69323766        6 
C      -1.59267859       1.03212301      -0.17796034        6 
C       1.47566934       1.04719441       0.13574882        6 
O      -2.81075516       0.91311953      -0.77772348        8 
O      -1.32128909       1.93915377       0.56212385        8 
O       2.36356212       1.71805944      -0.64852688        8 
O       1.32217748       1.28109223       1.30226009        8 
C       3.11759089       2.74853782       0.01449735        6 
C      -3.78006190       1.91917716      -0.43489980        6 
C      -0.91189566      -1.45414946       0.34338027        6 
C      -0.82110939      -2.65747843      -0.62084041        6 
C       0.65546958      -2.54071887      -1.08685482        6 
C       1.21442088      -1.43895844      -0.13451544        6 
O       0.35433633      -1.54113484       1.00876999        8 
H      -1.13106773      -0.43031333      -1.56203847        1 
H       1.09442482       0.09871470      -1.73075395        1 
H       3.69319480       2.33005496       0.84179075        1 
H      -3.41334651       2.91149299      -0.70172499        1 
H      -0.98710740      -3.58096901      -0.06167236        1 
H      -1.54733226      -2.61353427      -1.43494533        1 
H       1.20188627      -3.47400739      -0.94022723        1 
H       0.75656050      -2.26064584      -2.13789566        1 
H       3.78016910       3.15866877      -0.74483159        1 
H       2.44869532       3.51952874       0.40033032        1 
H      -3.99509639       1.89398826       0.63488523        1 
H      -4.67022828       1.67232649      -1.00977392        1 
C       2.66577743      -1.60832846       0.25657595        6 
H       2.82261642      -2.60816037       0.66680205        1 
H       3.30951470      -1.48888353      -0.61891034        1 
H       2.95968134      -0.87917036       1.01283168        1 
C      -2.04332107      -1.45629972       1.34399542        6 
H      -1.99860249      -2.36589569       1.94659377        1 
H      -1.96681780      -0.59458563       2.01014982        1 
H      -3.00722030      -1.42407544       0.83101499        1 
