35
Lattice="0.0 0.0 0.0 0.0 0.0 0.0 0.0 0.0 0.0" Properties=species:S:1:pos:R:3:Z:I:1 pbc="F F F"
C      -0.20447218       0.93804749       0.55486825        6 
C       0.40870757      -0.50500533       0.67722279        6 
C      -1.62327665       1.00804746       0.00689061        6 
C      -0.39292784      -1.61038429      -0.00262387        6 
O      -2.49549391       0.75292487       1.01082846        8 
O      -1.96334016       1.33191957      -1.10137635        8 
O       0.30034970      -2.76649911      -0.03040022        8 
O      -1.54538527      -1.54229479      -0.35069168        8 
C      -0.39222370      -3.91050019      -0.56516135        6 
C      -3.87407619       0.63764202       0.62047565        6 
C       0.91220062       1.71306075      -0.22258193        6 
C       2.00415882       2.05300046       0.82229471        6 
C       2.59928760       0.65643478       1.11942426        6 
C       1.85109506      -0.24264931       0.09026727        6 
O       1.55357297       0.66815917      -0.98016178        8 
H      -0.29113604       1.34808681       1.56290002        1 
H       0.47623217      -0.81566492       1.72251626        1 
H      -0.70349593      -3.72113523      -1.59321571        1 
H      -3.98795962      -0.19155786      -0.07943564        1 
H       2.74682662       2.70787394       0.36314848        1 
H       1.60297457       2.56099205       1.70166523        1 
H       3.67232108       0.62771954       0.92466291        1 
H       2.43991625       0.32290510       2.14715181        1 
H       0.32687523      -4.72579767      -0.52564560        1 
H      -1.27053999      -4.14169547       0.03950688        1 
H      -4.22171006       1.56058277       0.15393757        1 
H      -4.42259756       0.44286900       1.53990497        1 
C       2.68913914      -1.39187411      -0.43096402        6 
H       3.64711335      -0.99305744      -0.77299238        1 
H       2.87374188      -2.12443792       0.35639598        1 
H       2.20745073      -1.90025574      -1.26403603        1 
C       0.51850243       2.86841268      -1.11719256        6 
H       1.41983676       3.31598033      -1.54312062        1 
H      -0.14045124       2.54209715      -1.91758328        1 
H      -0.00314218       3.63354929      -0.53555644        1 
