35
Lattice="0.0 0.0 0.0 0.0 0.0 0.0 0.0 0.0 0.0" Properties=species:S:1:pos:R:3:Z:I:1 pbc="F F F"
C       0.17210476       0.94486250       0.52991926        6 
C       0.31465264      -0.60156050       0.85089501        6 
C      -1.20565609       1.35003766       0.03671217        6 
C      -0.88257299      -1.40120208       0.34552843        6 
O      -2.05214897       1.38066502       1.08483205        8 
O      -1.52156211       1.67899306      -1.08051759        8 
O      -0.71984198      -1.89823399      -0.89116194        8 
O      -1.92056813      -1.49152346       0.95885143        8 
C      -1.86917696      -2.53556873      -1.47899315        6 
C      -3.43832008       1.61791996       0.78537723        6 
C       1.42216463       1.19543379      -0.38395786        6 
C       2.62586933       1.32202210       0.58635672        6 
C       2.76686706      -0.13439822       1.09311063        6 
C       1.71270389      -0.88740211       0.22360194        6 
O       1.66791059      -0.09443766      -0.97479746        8 
H       0.28864257       1.48993209       1.46829226        1 
H       0.31742873      -0.75204552       1.93049757        1 
H      -2.69140896      -1.82364050      -1.56262914        1 
H      -3.82665262       0.81145944       0.16158839        1 
H       3.50793102       1.63184294       0.02276010        1 
H       2.45491895       2.05413047       1.37827174        1 
H       3.76302538      -0.53184075       0.89375192        1 
H       2.57376236      -0.24626423       2.16225665        1 
H      -1.54352348      -2.85971631      -2.46473977        1 
H      -2.18623107      -3.38735052      -0.87569343        1 
H      -3.56514583       2.57277379       0.27337625        1 
H      -3.94410437       1.62409141       1.74802505        1 
C       2.08320218      -2.32689508      -0.06939529        6 
H       3.09928662      -2.36805635      -0.46804861        1 
H       2.05574574      -2.91452177       0.85313529        1 
H       1.40392548      -2.77284202      -0.79148538        1 
C       1.34241679       2.26884641      -1.44695956        6 
H       2.30508403       2.34034584      -1.95830391        1 
H       0.56068912       2.04758751      -2.16931071        1 
H       1.12100505       3.23757252      -0.99062946        1 
