35
Lattice="0.0 0.0 0.0 0.0 0.0 0.0 0.0 0.0 0.0" Properties=species:S:1:pos:R:3:Z:I:1 pbc="F F F"
C      -0.51338579       0.58470757       0.62353922        6 
C       0.79640117      -0.20633620       0.93785268        6 
C      -1.75851625      -0.19591433       0.25758747        6 
C       0.83398383      -1.67174427       0.52674192        6 
O      -2.84353159       0.43750623       0.77122266        8 
O      -1.84706336      -1.19055801      -0.41665249        8 
O       0.82447885      -1.85841942      -0.79643496        8 
O       0.94733889      -2.56813669       1.33303274        8 
C       0.72717361      -3.21849476      -1.24868639        6 
C      -4.12258236      -0.13590097       0.44327469        6 
C      -0.02474449       1.61457034      -0.47933594        6 
C       0.63157102       2.77747382       0.30108059        6 
C       1.88917533       2.07165785       0.87502513        6 
C       1.83620964       0.68127316       0.16929146        6 
O       1.12302875       0.97194950      -1.04336050        8 
H      -0.79335629       1.15110804       1.51089740        1 
H       0.98997490      -0.20973019       2.00946376        1 
H      -0.23063919      -3.63880269      -0.93860726        1 
H      -4.19110386      -1.15720040       0.82079784        1 
H       0.90826368       3.56928521      -0.39829834        1 
H      -0.02439663       3.20516088       1.06114391        1 
H       2.80532267       2.59593049       0.59929161        1 
H       1.87376158       1.97761018       1.96309321        1 
H       0.78391235      -3.16506346      -2.33364507        1 
H       1.54164493      -3.82260917      -0.84629302        1 
H      -4.27221183      -0.14231236      -0.63759739        1 
H      -4.85831413       0.50170731       0.92849495        1 
C       3.18788068       0.06473802      -0.11614881        6 
H       3.81509383       0.77882347      -0.65440012        1 
H       3.68755036      -0.19377998       0.82145518        1 
H       3.09168168      -0.83565744      -0.72241150        1 
C      -1.01473317       1.98962164      -1.55738672        6 
H      -0.54013720       2.66027574      -2.27678650        1 
H      -1.36011495       1.10121545      -2.09021209        1 
H      -1.87862490       2.50032028      -1.12481874        1 
