35
Lattice="0.0 0.0 0.0 0.0 0.0 0.0 0.0 0.0 0.0" Properties=species:S:1:pos:R:3:Z:I:1 pbc="F F F"
C       0.47739980       0.79983982       0.63697536        6 
C       0.06400235      -0.70274667       0.65603733        6 
C      -0.57127299       1.84772679       0.30854128        6 
C      -1.14114339      -1.04856444      -0.19934096        6 
O      -1.82270681       1.38089759       0.48844916        8 
O      -0.33034134       3.00573568       0.06901831        8 
O      -2.02512205      -1.78679802       0.51429095        8 
O      -1.29120979      -0.78618706      -1.36532172        8 
C      -3.20245491      -2.20630771      -0.19677058        6 
C      -2.89547630       2.31199213       0.25917655        6 
C       1.81200367       0.77071325      -0.21190005        6 
C       2.92434011       0.34246507       0.77745171        6 
C       2.52236314      -1.12902253       1.06555573        6 
C       1.35870485      -1.35111453       0.05333628        6 
O       1.66815680      -0.42636987      -0.99576621        8 
H       0.74552560       1.08044639       1.66132053        1 
H      -0.12847388      -1.05434190       1.66820123        1 
H      -2.93615728      -2.85482722      -1.03319348        1 
H      -2.88811258       2.64416934      -0.77971794        1 
H       3.89109948       0.39380307       0.27336949        1 
H       2.96814001       0.97297921       1.66756759        1 
H       3.34039637      -1.81841698       0.85093966        1 
H       2.20569191      -1.30075161       2.09682827        1 
H      -3.80454586      -2.74782165       0.52987748        1 
H      -3.74559290      -1.33984044      -0.57762840        1 
H      -2.79982032       3.17625339       0.91781838        1 
H      -3.80725137       1.76035254       0.47753294        1 
C       1.22759069      -2.76124222      -0.47969719        6 
H       2.18235722      -3.08878902      -0.89691512        1 
H       0.95039016      -3.44646120       0.32597415        1 
H       0.47444540      -2.81713807      -1.26701239        1 
C       2.13475671       1.94170314      -1.10944624        6 
H       3.07577792       1.74218728      -1.62776661        1 
H       1.35055576       2.08965197      -1.85205835        1 
H       2.22914394       2.86119293      -0.53150204        1 
