35
Lattice="0.0 0.0 0.0 0.0 0.0 0.0 0.0 0.0 0.0" Properties=species:S:1:pos:R:3:Z:I:1 pbc="F F F"
C      -0.40063288       0.55066483      -0.83762159        6 
C      -0.21961839      -1.00070942      -0.58446007        6 
C       0.84753446       1.40429509      -0.70378889        6 
C       1.06397993      -1.42239694       0.13150071        6 
O       1.11130025       1.75189274       0.57233629        8 
O       1.57881013       1.66710206      -1.62625357        8 
O       2.13555558      -0.91222344      -0.50685198        8 
O       1.16369721      -2.18359678       1.06027839        8 
C       3.42681206      -1.25982770       0.02094076        6 
C       2.33669789       2.47306831       0.78851642        6 
C      -1.67381551       0.86915859       0.03233831        6 
C      -2.88547581       0.44153524      -0.83051441        6 
C      -2.71766925      -1.09595161      -0.84244457        6 
C      -1.55183599      -1.31263063       0.17332704        6 
O      -1.65705003      -0.16149119       1.03392381        8 
H      -0.65806649       0.67799026      -1.88981358        1 
H      -0.17879657      -1.51669673      -1.54737697        1 
H       3.58473726      -2.33797686      -0.03473202        1 
H       2.31636574       3.42896184       0.26279048        1 
H      -3.80598429       0.73245876      -0.32083518        1 
H      -2.88637703       0.89743642      -1.82248770        1 
H      -3.61731909      -1.60157454      -0.48919447        1 
H      -2.47934108      -1.49977970      -1.82898833        1 
H       4.14239912      -0.73326702      -0.60655829        1 
H       3.51163027      -0.93919721       1.06046593        1 
H       3.18705785       1.88924687       0.43334902        1 
H       2.39628132       2.62783126       1.86357182        1 
C      -1.68002446      -2.59629976       0.96811036        6 
H      -2.69364973      -2.66197854       1.37081621        1 
H      -1.51177582      -3.46049672       0.31937212        1 
H      -0.96243818      -2.63756023       1.78166253        1 
C      -1.79709265       2.23961028       0.66224241        6 
H      -2.77036438       2.33128600       1.14940470        1 
H      -1.01406724       2.40265459       1.39931394        1 
H      -1.72348660       3.01734774      -0.10358865        1 
