35
Lattice="0.0 0.0 0.0 0.0 0.0 0.0 0.0 0.0 0.0" Properties=species:S:1:pos:R:3:Z:I:1 pbc="F F F"
C      -0.38391067       0.64294658      -0.81197341        6 
C      -0.09981740      -0.87230728      -0.53197634        6 
C       0.49827480       1.67931699      -0.12945958        6 
C       1.33260532      -1.23434580      -0.17816916        6 
O       1.40864872       1.14890751       0.70087242        8 
O       0.33952997       2.87011636      -0.25989917        8 
O       2.12878038      -0.89923137      -1.22512121        8 
O       1.74219240      -1.79107301       0.80667067        8 
C       3.53426012      -1.13796114      -1.04732493        6 
C       2.21729757       2.06972801       1.45318809        6 
C      -1.84928495       0.73632983      -0.23388899        6 
C      -2.75923036      -0.19606818      -1.09311070        6 
C      -2.47028143      -1.58938786      -0.48282988        6 
C      -1.27145775      -1.26830804       0.44016456        6 
O      -1.68547580       0.00051574       0.99017350        8 
H      -0.36334766       0.87493433      -1.87748936        1 
H      -0.25296972      -1.39755245      -1.47927777        1 
H       3.72578261      -2.19602064      -0.86231750        1 
H       1.58548638       2.70792935       2.07208548        1 
H      -3.80530851       0.08896782      -0.97472670        1 
H      -2.51779399      -0.12960051      -2.15646121        1 
H      -3.30741463      -1.93543086       0.12643479        1 
H      -2.24258257      -2.35969147      -1.22269416        1 
H       4.00360234      -0.82045079      -1.97607218        1 
H       3.91347996      -0.55288228      -0.20741110        1 
H       2.81018318       2.69154401       0.78061925        1 
H       2.85816094       1.44643464       2.07281210        1 
C      -1.02438243      -2.26660310       1.54759395        6 
H      -1.95752346      -2.42788004       2.09356215        1 
H      -0.69160827      -3.22172332       1.13551997        1 
H      -0.25894818      -1.91470378       2.23554698        1 
C      -2.44855585       2.09902084       0.03513624        6 
H      -3.46028788       1.96740592       0.42568581        1 
H      -1.86485994       2.66609401       0.75764486        1 
H      -2.49936577       2.68133282      -0.88700505        1 
