35
Lattice="0.0 0.0 0.0 0.0 0.0 0.0 0.0 0.0 0.0" Properties=species:S:1:pos:R:3:Z:I:1 pbc="F F F"
C      -0.36018080       0.60833916      -0.86250143        6 
C      -0.22347298      -0.93468828      -0.60117058        6 
C       0.79723426       1.46917841      -0.39368670        6 
C       1.14515464      -1.39676285      -0.12320061        6 
O       1.09473489       1.25952210       0.90368251        8 
O       1.38986247       2.25103577      -1.09685931        8 
O       2.09816952      -0.84920262      -0.91235698        8 
O       1.39062689      -2.19897308       0.74040906        8 
C       3.45856395      -1.21559378      -0.62542351        6 
C       2.20635172       2.00342268       1.42966514        6 
C      -1.70713138       0.91529109      -0.12189846        6 
C      -2.84655772       0.29741030      -0.97553673        6 
C      -2.70904493      -1.20910339      -0.64059127        6 
C      -1.47461197      -1.21820103       0.30423080        6 
O      -1.64251402       0.02936454       1.00501132        8 
H      -0.44840114       0.81897567      -1.92678924        1 
H      -0.34401817      -1.45702342      -1.55560222        1 
H       3.60778632      -2.28440841      -0.78740076        1 
H       1.99648054       3.07407934       1.40440415        1 
H      -3.81018917       0.69364833      -0.64966807        1 
H      -2.73486453       0.52423673      -2.03787939        1 
H      -3.58015985      -1.57044642      -0.09147946        1 
H      -2.57802109      -1.84595883      -1.51817932        1 
H       4.06498700      -0.63342288      -1.31555429        1 
H       3.70920404      -0.97275047       0.40838727        1 
H       3.10726771       1.80375266       0.84703578        1 
H       2.32465622       1.65974313       2.45471084        1 
C      -1.44451850      -2.37337041       1.28127339        6 
H      -2.41078180      -2.43303669       1.78776628        1 
H      -1.26680921      -3.31511368       0.75682255        1 
H      -0.65546845      -2.24775967       2.01815754        1 
C      -1.92923578       2.34583635       0.31720618        6 
H      -2.89103307       2.43120299       0.82729740        1 
H      -1.14680240       2.67295535       1.00339703        1 
H      -1.93569750       3.01150770      -0.54976235        1 
