35
Lattice="0.0 0.0 0.0 0.0 0.0 0.0 0.0 0.0 0.0" Properties=species:S:1:pos:R:3:Z:I:1 pbc="F F F"
C       0.48578696       0.87493422       0.62480983        6 
C       0.04575562      -0.62546925       0.67852465        6 
C      -0.58487933       1.82380361       0.10570004        6 
C      -1.20294890      -0.95227183      -0.11036235        6 
O      -1.69836981       1.67674084       0.86719057        8 
O      -0.49029653       2.64094441      -0.77062929        8 
O      -1.86455404      -1.98019784       0.46969635        8 
O      -1.56188437      -0.42903936      -1.13524017        8 
C      -3.03365157      -2.44824880      -0.22737122        6 
C      -2.84986209       2.42987532       0.44760111        6 
C       1.85126179       0.78794895      -0.13924014        6 
C       2.88847468       0.25623847       0.88797930        6 
C       2.46458195      -1.22736786       1.03601783        6 
C       1.29537105      -1.32216650       0.02021665        6 
O       1.66457483      -0.36803896      -0.98152087        8 
H       0.66206240       1.21687361       1.64877525        1 
H      -0.10125007      -0.97631558       1.69835140        1 
H      -2.76400040      -2.82411794      -1.21587588        1 
H      -3.14497698       2.12571642      -0.55802348        1 
H       3.89024150       0.34033314       0.46328047        1 
H       2.87452902       0.81312749       1.82727180        1 
H       3.26632678      -1.90593231       0.73876614        1 
H       2.15536001      -1.49728466       2.04780319        1 
H      -3.43864860      -3.24783503       0.38889694        1 
H      -3.75952024      -1.64133550      -0.33765607        1 
H      -2.63587859       3.49955202       0.45545136        1 
H      -3.63116500       2.19078258       1.16619245        1 
C       1.07462192      -2.68776432      -0.59343931        6 
H       2.00899700      -3.04787216      -1.02879828        1 
H       0.74453421      -3.40064148       0.16561547        1 
H       0.32465930      -2.64720215      -1.38591504        1 
C       2.32533670       1.96934445      -0.95651885        6 
H       3.31274768       1.74468460      -1.36714999        1 
H       1.63634428       2.19094808      -1.76734567        1 
H       2.40415217       2.85991756      -0.32811482        1 
