35
Lattice="0.0 0.0 0.0 0.0 0.0 0.0 0.0 0.0 0.0" Properties=species:S:1:pos:R:3:Z:I:1 pbc="F F F"
C      -0.77907561       0.48103521      -0.85678280        6 
C       0.19234220      -0.74043992      -0.75389831        6 
C      -0.24238091       1.82196656      -0.38974995        6 
C       1.65501296      -0.33643760      -0.63490557        6 
O       0.39214942       1.74333571       0.79485355        8 
O      -0.41468692       2.85490704      -0.98968332        8 
O       2.40011227      -1.19056487       0.08497175        8 
O       2.12251891       0.60708888      -1.22710719        8 
C       3.81210515      -0.90775189       0.13492970        6 
C       0.97272026       2.96751774       1.27670381        6 
C      -1.97065073      -0.01269575       0.03412762        6 
C      -2.67473181      -1.17261395      -0.72213869        6 
C      -1.69682023      -2.35031611      -0.47599542        6 
C      -0.54762672      -1.65212468       0.30248149        6 
O      -1.28217872      -0.69840445       1.09032841        8 
H      -1.10415290       0.65058013      -1.88171090        1 
H       0.18195153      -1.26366213      -1.71589966        1 
H       3.98609789       0.07792472       0.56776099        1 
H       0.20165632       3.72520515       1.42446457        1 
H      -3.65200011      -1.36581570      -0.27607716        1 
H      -2.82896643      -0.94148852      -1.77794400        1 
H      -2.14842144      -3.10969656       0.16481976        1 
H      -1.35581915      -2.84104148      -1.38993450        1 
H       4.23882570      -1.68546410       0.76436828        1 
H       4.24239231      -0.94162055      -0.86694479        1 
H       1.71081653       3.33805802       0.56346604        1 
H       1.44425371       2.71162558       2.22298182        1 
C       0.23277667      -2.57092721       1.21698037        6 
H      -0.47358718      -3.11583303       1.84786396        1 
H       0.81725563      -3.29157064       0.64207315        1 
H       0.91447792      -2.00990901       1.85361295        1 
C      -2.88963416       1.05225148       0.58986018        6 
H      -3.65227629       0.58807619       1.21865604        1 
H      -2.33692843       1.77136696       1.19600665        1 
H      -3.38594379       1.59147033      -0.22088572        1 
