35
Lattice="0.0 0.0 0.0 0.0 0.0 0.0 0.0 0.0 0.0" Properties=species:S:1:pos:R:3:Z:I:1 pbc="F F F"
C       0.18296422       0.94509176       0.54964931        6 
C       0.35730960      -0.59528851       0.87729173        6 
C      -1.19365391       1.27578991       0.00396758        6 
C      -0.84320325      -1.41632763       0.42946664        6 
O      -2.05415082       1.40725674       1.03573388        8 
O      -1.51520757       1.41871881      -1.14970397        8 
O      -0.79907766      -1.75828305      -0.86704985        8 
O      -1.78188902      -1.66296855       1.15123754        8 
C      -1.96844331      -2.40338715      -1.40203905        6 
C      -3.44072206       1.58208519       0.69423275        6 
C       1.42729438       1.21653883      -0.36150732        6 
C       2.64223250       1.32367138       0.59899074        6 
C       2.81422834      -0.14917689       1.04849465        6 
C       1.73296884      -0.87620190       0.19405962        6 
O       1.66432142      -0.05799234      -0.98455235        8 
H       0.26769055       1.50647596       1.48071870        1 
H       0.40937536      -0.73974289       1.95569499        1 
H      -2.81908247      -1.72081826      -1.36849838        1 
H      -3.80064146       0.71701642       0.13527476        1 
H       3.51205378       1.67053544       0.03817095        1 
H       2.47017438       2.02067848       1.42181152        1 
H       3.80439874      -0.53134648       0.79513468        1 
H       2.66289962      -0.29934856       2.11950066        1 
H      -1.71735523      -2.64323380      -2.43257459        1 
H      -2.20270392      -3.30664775      -0.83732895        1 
H      -3.57924787       2.48524423       0.09812928        1 
H      -3.96403931       1.66103609       1.64415699        1 
C       2.06820824      -2.31346537      -0.14511583        6 
H       3.07150688      -2.36550842      -0.57361214        1 
H       2.05132954      -2.92605981       0.76099922        1 
H       1.36026816      -2.72402948      -0.86231591        1 
C       1.32705005       2.31776679      -1.39409217        6 
H       2.27979123       2.41160327      -1.91998469        1 
H       0.53607943       2.10792276      -2.11045831        1 
H       1.10835662       3.27244145      -0.90685113        1 
