35
Lattice="0.0 0.0 0.0 0.0 0.0 0.0 0.0 0.0 0.0" Properties=species:S:1:pos:R:3:Z:I:1 pbc="F F F"
C       0.17280614       0.94939650       0.57235546        6 
C       0.39085782      -0.58477340       0.88421807        6 
C      -1.18594148       1.25126358      -0.03406525        6 
C      -0.77821122      -1.47819286       0.50934336        6 
O      -2.09056012       1.39478970       0.96374400        8 
O      -1.47620777       1.32730881      -1.20043725        8 
O      -0.92296891      -1.61633205      -0.81736476        8 
O      -1.51867753      -1.98486309       1.32025979        8 
C      -2.05693477      -2.37792536      -1.26705554        6 
C      -3.45965169       1.57446963       0.55823568        6 
C       1.42246771       1.26392751      -0.31747839        6 
C       2.64257948       1.32761071       0.64327599        6 
C       2.85471446      -0.16862717       0.98600572        6 
C       1.74359835      -0.84823673       0.13776053        6 
O       1.64932626       0.01927592      -1.00046196        8 
H       0.21684618       1.50847732       1.50701840        1 
H       0.50623393      -0.72784539       1.95742414        1 
H      -2.98305853      -1.93753973      -0.89453161        1 
H      -3.79925764       0.71415121      -0.02090480        1 
H       3.50114951       1.73539666       0.10695067        1 
H       2.45993398       1.95743686       1.51648131        1 
H       3.83478929      -0.51974439       0.65773202        1 
H       2.75915445      -0.39347882       2.05035126        1 
H      -2.02144718      -2.32998140      -2.35273519        1 
H      -1.98650567      -3.41059989      -0.92105453        1 
H      -3.56561878       2.47777307      -0.04443735        1 
H      -4.02675820       1.65794721       1.48234860        1 
C       2.03787072      -2.27379471      -0.27739204        6 
H       3.02289627      -2.32613731      -0.74595520        1 
H       2.03870372      -2.92906619       0.59826127        1 
H       1.29564277      -2.63477933      -0.98819602        1 
C       1.32356473       2.41337819      -1.29703229        6 
H       2.27774617       2.53544642      -1.81432298        1 
H       0.53748261       2.23398178      -2.02698706        1 
H       1.10134570       3.34352719      -0.76548812        1 
