35
Lattice="0.0 0.0 0.0 0.0 0.0 0.0 0.0 0.0 0.0" Properties=species:S:1:pos:R:3:Z:I:1 pbc="F F F"
C      -0.74376615       0.23612354      -0.92903630        6 
C       0.55760391      -0.54653641      -0.57233319        6 
C      -0.96558093       1.66665733      -0.46614484        6 
C       1.84450415       0.19046859      -0.24629745        6 
O      -0.57193828       1.89999835       0.78464813        8 
O      -1.58018945       2.46640625      -1.13959501        8 
O       2.86527906      -0.41596112      -0.91450919        8 
O       2.02581380       1.11904364       0.49671128        8 
C       4.18021403       0.10951995      -0.66279721        6 
C      -0.81022976       3.21994176       1.29832983        6 
C      -1.79923015      -0.69822175      -0.21687790        6 
C      -1.75476704      -2.09792724      -0.90591968        6 
C      -0.52919933      -2.76036559      -0.22083072        6 
C       0.05372217      -1.55373889       0.54847721        6 
O      -1.14509463      -0.93777939       1.03620006        8 
H      -0.90404782       0.25391884      -2.00627747        1 
H       0.81357842      -1.14004605      -1.44879886        1 
H       4.43803281       0.00560019       0.39261615        1 
H      -1.88081957       3.43015714       1.33269020        1 
H      -2.67572484      -2.64725611      -0.70408202        1 
H      -1.64969092      -2.01418720      -1.98973365        1 
H      -0.84169385      -3.52585756       0.49291997        1 
H       0.18031337      -3.20970599      -0.91823930        1 
H       4.85202121      -0.48240562      -1.28081611        1 
H       4.23053774       1.16337342      -0.94064937        1 
H      -0.31681116       3.96559446       0.67340134        1 
H      -0.38476314       3.21781513       2.29897205        1 
C       1.00342772      -1.85934612       1.68204679        6 
H       0.51983886      -2.52428693       2.40085840        1 
H       1.90019079      -2.35585885       1.30227902        1 
H       1.29844950      -0.94368838       2.19712063        1 
C      -3.18730263      -0.13390914      -0.01216127        6 
H      -3.80914157      -0.86795235       0.50484046        1 
H      -3.16395064       0.77833505       0.58525956        1 
H      -3.64637439       0.09940198      -0.97545340        1 
