35
Lattice="0.0 0.0 0.0 0.0 0.0 0.0 0.0 0.0 0.0" Properties=species:S:1:pos:R:3:Z:I:1 pbc="F F F"
C       0.13301145       0.89684425       0.59703917        6 
C       0.36243295      -0.60840164       0.89111620        6 
C      -1.27576378       1.41112678       0.37657045        6 
C      -0.58774708      -1.60191459       0.24795420        6 
O      -2.21163568       0.54056922       0.80611707        8 
O      -1.53865605       2.53798918       0.03026274        8 
O      -1.01941416      -1.21203614      -0.96338213        8 
O      -0.84446981      -2.67975379       0.73216969        8 
C      -1.88401508      -2.12688346      -1.65511183        6 
C      -3.57610384       0.99559249       0.76051795        6 
C       1.26426569       1.22736368      -0.45838954        6 
C       2.52632964       1.52731521       0.38258250        6 
C       2.78874523       0.13637705       1.02328128        6 
C       1.78974384      -0.77639215       0.24636417        6 
O       1.60599031      -0.06788846      -0.98788148        8 
H       0.39460133       1.43777674       1.51361374        1 
H       0.36755432      -0.83503852       1.95622841        1 
H      -2.79234993      -2.30464379      -1.07610485        1 
H      -3.86906047       1.21210518      -0.26804608        1 
H       3.34306688       1.81500365      -0.28249611        1 
H       2.37601906       2.32935680       1.10789291        1 
H       3.81283047      -0.19978643       0.85459676        1 
H       2.60725050       0.11380192       2.10042198        1 
H      -2.12018985      -1.64294706      -2.60035338        1 
H      -1.37823614      -3.07811418      -1.82797326        1 
H      -3.69992590       1.89496982       1.36547981        1 
H      -4.16673204       0.17572787       1.16317332        1 
C       2.26607422      -2.18988121      -0.00278140        6 
H       3.25444787      -2.16831526      -0.46667641        1 
H       2.33025069      -2.74006654       0.93877807        1 
H       1.58565979      -2.72882026      -0.66368013        1 
C       0.94890801       2.18454754      -1.58135913        6 
H       1.81780612       2.26556055      -2.23901562        1 
H       0.09954435       1.82770529      -2.16544671        1 
H       0.69934198       3.17097385      -1.19049116        1 
