35
Lattice="0.0 0.0 0.0 0.0 0.0 0.0 0.0 0.0 0.0" Properties=species:S:1:pos:R:3:Z:I:1 pbc="F F F"
C      -0.46234470       0.78910312      -0.81783701        6 
C      -0.34457321      -0.78645709      -0.87239759        6 
C       0.86701145       1.51397652      -0.73339249        6 
C       1.05940745      -1.26103314      -0.51554133        6 
O       1.43930443       1.42593840       0.48457916        8 
O       1.39549469       2.04738302      -1.67725261        8 
O       1.21950969      -1.61701411       0.76667854        8 
O       1.95747700      -1.27576160      -1.32528481        8 
C       2.55733411      -1.96583676       1.16228133        6 
C       2.75811848       1.99167266       0.59995849        6 
C      -1.53062914       0.98743643       0.32097793        6 
C      -2.90548310       0.76079957      -0.35297059        6 
C      -2.84584973      -0.75822580      -0.64755032        6 
C      -1.52534566      -1.18326589       0.06832242        6 
O      -1.40365199      -0.20375080       1.11580376        8 
H      -0.87531535       1.13553090      -1.76452260        1 
H      -0.50456181      -1.12824655      -1.89509285        1 
H       3.22572042      -1.11564526       1.01863859        1 
H       2.73037939       3.06669683       0.41513903        1 
H      -3.69695563       0.99436731       0.36169251        1 
H      -3.05343619       1.37778424      -1.24155667        1 
H      -3.69361770      -1.28760698      -0.20992842        1 
H      -2.82474721      -0.99197267      -1.71431812        1 
H       2.48755586      -2.22299706       2.21678893        1 
H       2.92420084      -2.81201111       0.57969336        1 
H       3.43240818       1.52123986      -0.11688426        1 
H       3.07084621       1.78763492       1.62176693        1 
C      -1.56426650      -2.59488343       0.61586859        6 
H      -2.44790787      -2.71521331       1.24680756        1 
H      -1.63653642      -3.31108196      -0.20822727        1 
H      -0.67893547      -2.82250430       1.20394516        1 
C      -1.42285201       2.22967308       1.17574754        6 
H      -2.24694091       2.25882376       1.89213999        1 
H      -0.48093689       2.24469203       1.72160971        1 
H      -1.48148660       3.12451532       0.54932894        1 
