35
Lattice="0.0 0.0 0.0 0.0 0.0 0.0 0.0 0.0 0.0" Properties=species:S:1:pos:R:3:Z:I:1 pbc="F F F"
C      -0.84060440       0.12207599      -0.92593588        6 
C       0.55364143      -0.52764293      -0.66212877        6 
C      -0.99283586       1.58589925      -0.52876686        6 
C       1.71461029       0.38319230      -0.32369052        6 
O      -1.03511763       1.78190668       0.79432546        8 
O      -1.12742301       2.46774587      -1.34586738        8 
O       2.87596857      -0.25267083      -0.61262770        8 
O       1.67739106       1.49635250       0.13627378        8 
C       4.08313205       0.46699890      -0.30099033        6 
C      -1.04541839       3.15197000       1.22715829        6 
C      -1.75827841      -0.86437479      -0.12856795        6 
C      -1.69666407      -2.25386997      -0.83776930        6 
C      -0.35433483      -2.83093750      -0.31384012        6 
C       0.20816180      -1.61073940       0.45057512        6 
O      -0.97764778      -1.08533094       1.05721882        8 
H      -1.06873555       0.10006443      -1.99094272        1 
H       0.87180030      -1.05965881      -1.55895421        1 
H       4.14619941       0.65900095       0.77150979        1 
H      -1.89916075       3.68553911       0.80639884        1 
H      -2.54431928      -2.86853385      -0.53118923        1 
H      -1.73153086      -2.15955401      -1.92531074        1 
H      -0.52239412      -3.64940657       0.38911655        1 
H       0.31353240      -3.18606602      -1.10081387        1 
H       4.89675090      -0.17933440      -0.62262264        1 
H       4.10980288       1.41628902      -0.83751693        1 
H      -0.11968255       3.63886785       0.91774565        1 
H      -1.11218972       3.11065176       2.31215692        1 
C       1.25986026      -1.89261049       1.49863087        6 
H       0.86686579      -2.60342883       2.22888131        1 
H       2.15593701      -2.31669473       1.04175408        1 
H       1.53706964      -0.97766219       2.02753718        1 
C      -3.15631299      -0.39095494       0.20355582        6 
H      -3.68622427      -1.16443347       0.76395775        1 
H      -3.13268676       0.51787327       0.80344806        1 
H      -3.71208007      -0.19257895      -0.71712106        1 
