35
Lattice="0.0 0.0 0.0 0.0 0.0 0.0 0.0 0.0 0.0" Properties=species:S:1:pos:R:3:Z:I:1 pbc="F F F"
C      -0.50684634       0.78101886      -0.81513491        6 
C      -0.29023303      -0.78394847      -0.86695345        6 
C       0.76395255       1.59551372      -0.67871051        6 
C       1.15114985      -1.15972188      -0.53877756        6 
O       1.33882289       1.45814967       0.53446721        8 
O       1.24838315       2.24003499      -1.57504473        8 
O       1.33422234      -1.69806191       0.67428638        8 
O       2.05598458      -0.94964467      -1.31300764        8 
C       2.69742267      -1.97462895       1.04258328        6 
C       2.62532314       2.08395445       0.69182563        6 
C      -1.60021382       0.91082570       0.30948598        6 
C      -2.94871140       0.59048518      -0.37602093        6 
C      -2.78744806      -0.92300966      -0.65912265        6 
C      -1.44633842      -1.25693658       0.06948319        6 
O      -1.39820749      -0.26499654       1.11194789        8 
H      -0.92169012       1.10976775      -1.76694654        1 
H      -0.43787454      -1.13121713      -1.89062395        1 
H       3.28317313      -1.05463874       1.03240138        1 
H       2.54498921       3.16417755       0.56164398        1 
H      -3.76192443       0.77612296       0.32826479        1 
H      -3.12775186       1.19166917      -1.26970729        1 
H      -3.60128868      -1.50292296      -0.22146133        1 
H      -2.74618166      -1.16345082      -1.72377287        1 
H       2.64570837      -2.38543479       2.04835501        1 
H       3.14410566      -2.69256880       0.35340287        1 
H       3.32647488       1.68323831      -0.04171819        1 
H       2.94126645       1.84361602       1.70483282        1 
C      -1.40781200      -2.66348051       0.63124215        6 
H      -2.31746240      -2.84838818       1.20709733        1 
H      -1.36992073      -3.39103452      -0.18527214        1 
H      -0.54484197      -2.81445667       1.27332641        1 
C      -1.58480340       2.16245252       1.15813102        6 
H      -2.42116099       2.14479158       1.86041944        1 
H      -0.65551380       2.23941202       1.72098732        1 
H      -1.68774139       3.04816777       0.52460531        1 
