35
Lattice="0.0 0.0 0.0 0.0 0.0 0.0 0.0 0.0 0.0" Properties=species:S:1:pos:R:3:Z:I:1 pbc="F F F"
C       0.11757852       0.91780460       0.55754538        6 
C       0.39897040      -0.60320763       0.83542883        6 
C      -1.28805670       1.25203303       0.08515289        6 
C      -0.54345785      -1.66194324       0.29052727        6 
O      -2.14897225       1.03337424       1.11177200        8 
O      -1.63827077       1.67467820      -0.98512730        8 
O      -1.41065723      -1.20616556      -0.62434099        8 
O      -0.44911000      -2.82980868       0.58956489        8 
C      -2.26044599      -2.17912604      -1.25696162        6 
C      -3.54191139       1.21913028       0.81033021        6 
C       1.32330901       1.32167391      -0.35967036        6 
C       2.53772425       1.50826217       0.58803774        6 
C       2.83296816       0.04923996       1.01350609        6 
C       1.81759521      -0.74956195       0.14678322        6 
O       1.65436984       0.08046042      -1.01106237        8 
H       0.20356874       1.44436059       1.51142812        1 
H       0.47516065      -0.80717101       1.90313842        1 
H      -2.87420242      -2.68966322      -0.51342762        1 
H      -3.85034578       0.53618600       0.01651599        1 
H       3.37038819       1.92970054       0.02216600        1 
H       2.32015202       2.17859756       1.42203464        1 
H       3.85188348      -0.24586854       0.75729289        1 
H       2.69227910      -0.13428221       2.08060020        1 
H      -2.87782002      -1.61095822      -1.94909174        1 
H      -1.65812564      -2.91357911      -1.79310581        1 
H      -3.73486783       2.24514878       0.49343960        1 
H      -4.07290657       0.99688737       1.73348635        1 
C       2.28541678      -2.13081989      -0.25597899        6 
H       3.27568500      -2.04957862      -0.70957377        1 
H       2.34530918      -2.78778643       0.61335876        1 
H       1.61079334      -2.58996806      -0.97813775        1 
C       1.14280397       2.42759751      -1.37637027        6 
H       2.09067130       2.59630898      -1.89316239        1 
H       0.37182541       2.17575279      -2.09967919        1 
H       0.85107242       3.35662920      -0.87926986        1 
