35
Lattice="0.0 0.0 0.0 0.0 0.0 0.0 0.0 0.0 0.0" Properties=species:S:1:pos:R:3:Z:I:1 pbc="F F F"
C      -0.84941769      -0.04158901      -0.67788940        6 
C       0.69162392      -0.24314797      -0.60219560        6 
C      -1.42254114       1.10486311       0.14757739        6 
C       1.55614962       0.93534960      -0.20428950        6 
O      -2.00886203       2.00763130      -0.67952180        8 
O      -1.40304082       1.21911013       1.34283866        8 
O       2.81932878       0.72423588      -0.65531485        8 
O       1.24152717       1.91575341       0.41876987        8 
C       3.78962425       1.72524781      -0.29737297        6 
C      -2.56264411       3.16912979      -0.03509939        6 
C      -1.32272547      -1.42111261      -0.09614947        6 
C      -0.86396786      -2.54806649      -1.07426683        6 
C       0.62565222      -2.73598202      -0.68048961        6 
C       0.81841254      -1.55070028       0.29220701        6 
O      -0.42062892      -1.57572347       1.00885968        8 
H      -1.17363429       0.09419746      -1.70871771        1 
H       1.04731827      -0.50081709      -1.60100387        1 
H       3.87223732       1.80536836       0.78775206        1 
H      -1.77946225       3.71356131       0.49435958        1 
H      -1.44504841      -3.45511695      -0.90007593        1 
H      -1.00212468      -2.26252154      -2.11961938        1 
H       0.77715578      -3.67263310      -0.13963944        1 
H       1.31520965      -2.71320219      -1.52662369        1 
H       4.72867360       1.38646068      -0.72948892        1 
H       3.50605938       2.69569340      -0.70741513        1 
H      -3.34141782       2.88038723       0.67288038        1 
H      -2.98012871       3.77490816      -0.83676479        1 
C       1.98557298      -1.63090651       1.24705796        6 
H       1.91178022      -2.54673553       1.83728667        1 
H       2.92948427      -1.63946471       0.69894402        1 
H       1.98278537      -0.77973886       1.93172844        1 
C      -2.76456205      -1.51807829       0.35166103        6 
H      -2.95623340      -2.51068968       0.76500434        1 
H      -2.99022367      -0.77608856       1.11723685        1 
H      -3.43447459      -1.36660748      -0.49972425        1 
