35
Lattice="0.0 0.0 0.0 0.0 0.0 0.0 0.0 0.0 0.0" Properties=species:S:1:pos:R:3:Z:I:1 pbc="F F F"
C      -0.87417772       0.02678969      -0.81396254        6 
C       0.60971925      -0.48578144      -0.71594326        6 
C      -1.05241135       1.53465986      -0.67553198        6 
C       1.62880896       0.50831240      -0.17005531        6 
O      -1.31472317       1.94243145       0.57483969        8 
O      -0.96474317       2.27933686      -1.62243701        8 
O       2.83810017      -0.07994084      -0.04497288        8 
O       1.46702586       1.69032155      -0.00056164        8 
C       3.92154480       0.78089140       0.35266014        6 
C      -1.32626466       3.36697066       0.77587323        6 
C      -1.63216590      -0.96000065       0.13940970        6 
C      -1.80850529      -2.27793649      -0.66053477        6 
C      -0.35799522      -2.81423515      -0.70501210        6 
C       0.39805725      -1.77627838       0.17599852        6 
O      -0.61704235      -1.32931678       1.08867194        8 
H      -1.21101636      -0.15171558      -1.83605707        1 
H       0.99170486      -0.76597374      -1.69943395        1 
H       3.72457111       1.21396200       1.33442412        1 
H      -2.08438431       3.83777090       0.14847733        1 
H      -2.46114747      -2.95191728      -0.10255798        1 
H      -2.25169174      -2.11820494      -1.64530079        1 
H      -0.28394785      -3.80554349      -0.25512935        1 
H       0.05738732      -2.87601360      -1.71320213        1 
H       4.80067098       0.14115947       0.38586880        1 
H       4.05488868       1.58374087      -0.37372711        1 
H      -0.34441997       3.77565406       0.53471463        1 
H      -1.55596241       3.50880743       1.82984216        1 
C       1.55498012      -2.36495949       0.95563164        6 
H       1.19634588      -3.24628894       1.49238888        1 
H       2.36460763      -2.66420735       0.28858522        1 
H       1.95294004      -1.65811217       1.68225657        1 
C      -2.88971979      -0.49145149       0.83925448        6 
H      -3.32715876      -1.32550934       1.39302235        1 
H      -2.67876521       0.32266767       1.52796371        1 
H      -3.62440312      -0.14526239       0.10648994        1 
