35
Lattice="0.0 0.0 0.0 0.0 0.0 0.0 0.0 0.0 0.0" Properties=species:S:1:pos:R:3:Z:I:1 pbc="F F F"
C       0.02296282       0.95614723       0.50479996        6 
C       0.30773426      -0.57522376       0.75991049        6 
C      -1.36635385       1.27365078      -0.01779257        6 
C      -0.76920912      -1.48420236       0.16373411        6 
O      -2.19603196       1.51410734       1.01913877        8 
O      -1.69254701       1.38807727      -1.17329616        8 
O      -0.29753427      -2.55914355      -0.48205718        8 
O      -1.95130707      -1.28349030       0.31435878        8 
C      -1.28597313      -3.45335644      -1.03205893        6 
C      -3.58442891       1.67992356       0.68370665        6 
C       1.25284379       1.37172342      -0.38306032        6 
C       2.40396589       1.64047448       0.61307431        6 
C       2.65089127       0.22087983       1.17247957        6 
C       1.77512337      -0.66797129       0.22626762        6 
O       1.67694724       0.12529593      -0.97027014        8 
H       0.08337168       1.47355123       1.46263895        1 
H       0.26505805      -0.78300142       1.83297001        1 
H      -1.92251689      -2.92201509      -1.74006913        1 
H      -3.96317670       0.76311505       0.22951079        1 
H       3.27297998       2.00502645       0.06178542        1 
H       2.14439694       2.37982014       1.37353904        1 
H       3.69961313      -0.06819748       1.09732303        1 
H       2.35329813       0.11430929       2.21848283        1 
H      -0.71753783      -4.23293382      -1.53427532        1 
H      -1.90204834      -3.87579204      -0.23706452        1 
H      -3.71783177       2.51420514      -0.00651772        1 
H      -4.08991347       1.87663037       1.62683281        1 
C       2.41054404      -2.01299380      -0.06827844        6 
H       3.46737391      -1.86149025      -0.29949304        1 
H       2.34016112      -2.66769262       0.80434089        1 
H       1.93205216      -2.50720013      -0.90797146        1 
C       1.05772351       2.42977938      -1.44537404        6 
H       2.00974555       2.61679453      -1.94788265        1 
H       0.31464102       2.11955343      -2.17654330        1 
H       0.72091072       3.36479826      -0.98886392        1 
