35
Lattice="0.0 0.0 0.0 0.0 0.0 0.0 0.0 0.0 0.0" Properties=species:S:1:pos:R:3:Z:I:1 pbc="F F F"
C      -0.85143390       0.13581197      -0.91922308        6 
C       0.53873275      -0.54159982      -0.67990325        6 
C      -0.92344806       1.61637489      -0.56172780        6 
C       1.70237556       0.34171130      -0.28328913        6 
O      -1.08864561       1.84945425       0.74579639        8 
O      -0.87496140       2.48503780      -1.40167577        8 
O       2.86284393      -0.28395622      -0.59406095        8 
O       1.66552402       1.42854098       0.23604138        8 
C       4.06999421       0.40723720      -0.22374212        6 
C      -0.99821799       3.22464608       1.15450759        6 
C      -1.77888296      -0.82054865      -0.10125620        6 
C      -1.79003210      -2.20159066      -0.82814033        6 
C      -0.44449051      -2.82340275      -0.37349530        6 
C       0.17736449      -1.64268030       0.40823615        6 
O      -0.97082081      -1.08631582       1.05841860        8 
H      -1.09539916       0.10205487      -1.98072079        1 
H       0.85991073      -1.04955063      -1.58890171        1 
H       4.11522451       0.54154504       0.85840176        1 
H      -1.74417445       3.83228683       0.63999944        1 
H      -2.63955055      -2.79443628      -0.48597492        1 
H      -1.87585156      -2.09372604      -1.91152575        1 
H      -0.60427922      -3.66217062       0.30699521        1 
H       0.18703634      -3.16576437      -1.19519809        1 
H       4.88394207      -0.22857848      -0.56486369        1 
H       4.11424107       1.38329061      -0.70871711        1 
H       0.00068798       3.60270675       0.93389675        1 
H      -1.17781561       3.21854448       2.22742193        1 
C       1.23911526      -1.99633404       1.42519655        6 
H       0.83636227      -2.72325919       2.13380862        1 
H       2.11439005      -2.42807465       0.93621518        1 
H       1.55267733      -1.11237665       1.98560514        1 
C      -3.15320991      -0.31239831       0.27693100        6 
H      -3.69225513      -1.08414022       0.83108121        1 
H      -3.08900831       0.58180982       0.89386000        1 
H      -3.72497259      -0.07835523      -0.62588791        1 
