35
Lattice="0.0 0.0 0.0 0.0 0.0 0.0 0.0 0.0 0.0" Properties=species:S:1:pos:R:3:Z:I:1 pbc="F F F"
C      -0.13844997       0.69230273       0.68004800        6 
C       0.75243947      -0.56951445       0.86970912        6 
C      -1.62817226       0.44303432       0.82859056        6 
C       0.29300964      -1.81655011       0.10691729        6 
O      -2.39165505       1.15134707      -0.02231659        8 
O      -2.08279134      -0.26920170       1.69105232        8 
O      -0.92768253      -1.68363456      -0.44379509        8 
O       0.99488568      -2.77508838      -0.10888994        8 
C      -1.37311026      -2.76685510      -1.27779477        6 
C      -3.81423179       0.97678618       0.11615015        6 
C       0.57506223       1.44372375      -0.51596847        6 
C       1.60929406       2.35657049       0.17883573        6 
C       2.50761223       1.29247882       0.85955830        6 
C       2.05367537      -0.03265175       0.15897597        6 
O       1.45166417       0.43753645      -1.06667623        8 
H       0.03144458       1.30725315       1.57211970        1 
H       0.90611734      -0.83209155       1.91659097        1 
H      -1.43829297      -3.68992193      -0.70035333        1 
H      -4.14607399       1.29445868       1.10566503        1 
H       2.16146450       2.91824072      -0.57785361        1 
H       1.15610142       3.06593846       0.87502279        1 
H       3.56660489       1.47204784       0.67335426        1 
H       2.37081979       1.24299061       1.94268931        1 
H      -2.35658060      -2.46960468      -1.63561929        1 
H      -0.68525976      -2.90945948      -2.11231411        1 
H      -4.08305797      -0.07025800      -0.03151213        1 
H      -4.25813156       1.60067628      -0.65677119        1 
C       3.20726519      -0.97180921      -0.12214959        6 
H       4.00567199      -0.40799937      -0.61078908        1 
H       3.59511231      -1.37924939       0.81509390        1 
H       2.91664459      -1.80370877      -0.75642954        1 
C      -0.23419989       2.07425505      -1.62441328        6 
H       0.45392505       2.47895756      -2.37095090        1 
H      -0.88611350       1.34330401      -2.10104879        1 
H      -0.85470835       2.88398929      -1.23917152        1 
