35
Lattice="0.0 0.0 0.0 0.0 0.0 0.0 0.0 0.0 0.0" Properties=species:S:1:pos:R:3:Z:I:1 pbc="F F F"
C       0.27895755       0.80004564       0.72844373        6 
C       0.18652115      -0.75505270       0.53433463        6 
C      -0.65054502       1.62436148      -0.17656959        6 
C      -1.17181252      -1.37249589       0.26388257        6 
O      -1.87572490       1.06817526      -0.27658717        8 
O      -0.36686406       2.64694532      -0.74670081        8 
O      -1.97662808      -1.14112056       1.32862325        8 
O      -1.47415504      -2.11576990      -0.63573157        8 
C      -3.30868803      -1.66675021       1.23768827        6 
C      -2.81026052       1.73276527      -1.14700778        6 
C       1.78002025       0.99334915       0.32770988        6 
C       2.66678875       0.11602919       1.27459302        6 
C       2.59242534      -1.27959111       0.60795671        6 
C       1.43141784      -1.05361459      -0.38585096        6 
O       1.78290390       0.24607179      -0.90685956        8 
H       0.06622524       1.08325247       1.76216447        1 
H       0.40592770      -1.17952019       1.51867008        1 
H      -3.29145812      -2.75294815       1.13303209        1 
H      -2.43052269       1.74587367      -2.16939974        1 
H       3.68580486       0.50305957       1.29851283        1 
H       2.29123145       0.12378236       2.30109465        1 
H       3.50449794      -1.50336602       0.05089086        1 
H       2.40384739      -2.09685790       1.30781782        1 
H      -3.79975369      -1.37945951       2.16505262        1 
H      -3.82991045      -1.23363509       0.38168561        1 
H      -2.98376421       2.75607595      -0.81213642        1 
H      -3.72491968       1.14708545      -1.08724327        1 
C       1.31291623      -2.05104130      -1.51392486        6 
H       2.26809954      -2.09665669      -2.04289563        1 
H       1.07453190      -3.04397960      -1.12888960        1 
H       0.52774879      -1.76794911      -2.21297822        1 
C       2.33974491       2.38820540       0.13351332        6 
H       3.40348227       2.31061458      -0.10392418        1 
H       1.82954896       2.92256678      -0.66084822        1 
H       2.23830655       2.96422905       1.05820295        1 
