35
Lattice="0.0 0.0 0.0 0.0 0.0 0.0 0.0 0.0 0.0" Properties=species:S:1:pos:R:3:Z:I:1 pbc="F F F"
C       0.22414565       1.00425118       0.57639849        6 
C       0.41113841      -0.54133707       0.85729715        6 
C      -1.05730793       1.35607502      -0.17474363        6 
C      -0.84497615      -1.37978286       0.71839876        6 
O      -2.12352099       1.05532526       0.59762765        8 
O      -1.16177669       1.88022048      -1.25404435        8 
O      -1.10965261      -1.71650227      -0.56053677        8 
O      -1.58694169      -1.63084448       1.63590645        8 
C      -2.33815906      -2.42991539      -0.78875220        6 
C      -3.42022907       1.30451921       0.02878531        6 
C       1.55041283       1.30993839      -0.18573390        6 
C       2.71929659       1.11707462       0.83006524        6 
C       2.89394005      -0.42022846       0.84437579        6 
C       1.68357257      -0.86784182      -0.00993713        6 
O       1.66155332       0.14619555      -1.02822096        8 
H       0.16523745       1.53852400       1.52683795        1 
H       0.66190456      -0.65763141       1.91220223        1 
H      -3.18558056      -1.86007295      -0.40568956        1 
H      -3.51593037       0.80583932      -0.93702726        1 
H       3.61573854       1.62117239       0.46634432        1 
H       2.48019456       1.53647837       1.81001313        1 
H       3.81536263      -0.71583321       0.33914501        1 
H       2.89797683      -0.85863627       1.84428412        1 
H      -2.40745816      -2.54832038      -1.86780161        1 
H      -2.31121521      -3.40348179      -0.29652295        1 
H      -3.57812974       2.37587061      -0.10672493        1 
H      -4.13073935       0.89910941       0.74572126        1 
C       1.80542967      -2.24783767      -0.61900051        6 
H       2.77714995      -2.34810342      -1.10754302        1 
H       1.73320367      -3.01438766       0.15826947        1 
H       1.02003771      -2.42020047      -1.35177097        1 
C       1.65413559       2.58610537      -0.99529664        6 
H       2.65841761       2.65998909      -1.41892040        1 
H       0.92001263       2.60985040      -1.79532594        1 
H       1.49264007       3.45410129      -0.34891994        1 
