35
Lattice="0.0 0.0 0.0 0.0 0.0 0.0 0.0 0.0 0.0" Properties=species:S:1:pos:R:3:Z:I:1 pbc="F F F"
C      -0.77924134       0.26946658       0.76037240        6 
C       0.77861456       0.19271256       0.72224184        6 
C      -1.42146968      -1.10501606       0.62849064        6 
C       1.31205159      -0.98914354      -0.06263097        6 
O      -2.47832285      -1.15866050      -0.19237743        8 
O      -1.03203820      -2.04907098       1.27539041        8 
O       2.53618758      -1.34027654       0.38848999        8 
O       0.75920696      -1.54069096      -0.98105324        8 
C       3.16685082      -2.43609726      -0.29952878        6 
C      -3.09316596      -2.45373030      -0.34037917        6 
C      -1.07459907       1.49462343      -0.18450995        6 
C      -0.82101634       2.75593404       0.68627254        6 
C       0.71931501       2.71394450       0.85990246        6 
C       1.10956701       1.51805928      -0.05429246        6 
O       0.07744064       1.52310349      -1.04890479        8 
H      -1.07016695       0.55154902       1.77782431        1 
H       1.22955966       0.18244418       1.71239534        1 
H       3.33793457      -2.18232433      -1.34721722        1 
H      -3.45750362      -2.81706796       0.62146818        1 
H      -1.12928959       3.64240489       0.12900493        1 
H      -1.37426573       2.73986685       1.62745865        1 
H       1.18912513       3.62985638       0.49711306        1 
H       1.03968170       2.56149722       1.89291096        1 
H       4.11194148      -2.59646887       0.21458764        1 
H       2.54087325      -3.32757722      -0.24347467        1 
H      -2.37191768      -3.16315986      -0.74750262        1 
H      -3.91814886      -2.30253765      -1.03315713        1 
C       2.47373146       1.61055572      -0.70223478        6 
H       2.57573105       2.57239495      -1.20916585        1 
H       3.26202827       1.52210002       0.04846495        1 
H       2.60939970       0.81942640      -1.44197924        1 
C      -2.34052932       1.54146407      -1.01027009        6 
H      -2.36949115       2.48586318      -1.55924047        1 
H      -2.37717800       0.71644595      -1.71804523        1 
H      -3.22305090       1.48231832      -0.36985615        1 
