35
Lattice="0.0 0.0 0.0 0.0 0.0 0.0 0.0 0.0 0.0" Properties=species:S:1:pos:R:3:Z:I:1 pbc="F F F"
C      -0.81323896      -0.09124393      -0.77854869        6 
C       0.72127578      -0.38001933      -0.70086964        6 
C      -1.11889657       1.39301976      -0.61892613        6 
C       1.50770183       0.67302115       0.05441225        6 
O      -2.08765706       1.68388448       0.25671026        8 
O      -0.55837208       2.22461957      -1.29469374        8 
O       2.76208957       0.76721822      -0.43598306        8 
O       1.11018821       1.31645144       0.99359675        8 
C       3.62406296       1.70957337       0.22860136        6 
C      -2.38678919       3.08331628       0.42407200        6 
C      -1.40538179      -1.22411857       0.13901193        6 
C      -1.39085648      -2.51347261      -0.72934731        6 
C       0.12510637      -2.82581999      -0.81080937        6 
C       0.72430392      -1.72716211       0.10769526        6 
O      -0.32623465      -1.49389793       1.05619956        8 
H      -1.13657515      -0.28015917      -1.80678586        1 
H       1.17383928      -0.50813165      -1.68215012        1 
H       3.74013057       1.44504351       1.28091939        1 
H      -2.70957063       3.52083542      -0.52156952        1 
H      -1.92647750      -3.30598349      -0.20387522        1 
H      -1.86553060      -2.37322487      -1.70291230        1 
H       0.35203483      -3.81311396      -0.40473885        1 
H       0.52892033      -2.78019853      -1.82417327        1 
H       4.57758135       1.64697765      -0.29091224        1 
H       3.21003586       2.71611796       0.15462735        1 
H      -1.50480727       3.61127326       0.78761840        1 
H      -3.18785407       3.11914489       1.15919377        1 
C       2.01108029      -2.09842454       0.81113768        6 
H       1.87607585      -3.03707235       1.35274797        1 
H       2.81909170      -2.22500410       0.08681757        1 
H       2.30419725      -1.33000989       1.52884374        1 
C      -2.69340923      -1.00112625       0.90076960        6 
H      -2.96409371      -1.92502418       1.41754136        1 
H      -2.58405390      -0.20239297       1.62994328        1 
H      -3.50345843      -0.73384990       0.21822055        1 
