35
Lattice="0.0 0.0 0.0 0.0 0.0 0.0 0.0 0.0 0.0" Properties=species:S:1:pos:R:3:Z:I:1 pbc="F F F"
C       0.10514437       0.82869054       0.49338069        6 
C       0.36231686      -0.68784376       0.79167430        6 
C      -1.31848691       1.26715111       0.21182879        6 
C      -0.47844203      -1.68036090      -0.02350545        6 
O      -2.08431235       0.98142371       1.29336903        8 
O      -1.71944294       1.91231164      -0.72338913        8 
O      -1.68812563      -1.18767401      -0.35318256        8 
O      -0.11909386      -2.77576264      -0.37594093        8 
C      -2.51284024      -2.02093051      -1.18874324        6 
C      -3.47690049       1.30973838       1.18058562        6 
C       1.28297464       1.18909845      -0.48697637        6 
C       2.44251475       1.60396630       0.44418270        6 
C       2.68636984       0.27329528       1.20004735        6 
C       1.86886510      -0.75600566       0.34787890        6 
O       1.75406136      -0.10159392      -0.93303086        8 
H       0.29856943       1.34663458       1.43758613        1 
H       0.21776215      -0.92269518       1.84879737        1 
H      -2.77078022      -2.94426647      -0.66823162        1 
H      -3.93006119       0.75170822       0.35878198        1 
H       3.30848521       1.88219425      -0.15985514        1 
H       2.19029775       2.44384816       1.09584221        1 
H       3.74100191      -0.00212295       1.21098017        1 
H       2.34509577       0.29914436       2.23828613        1 
H      -3.40310453      -1.43043021      -1.39327032        1 
H      -1.98996496      -2.26171194      -2.11474749        1 
H      -3.61120662       2.37818078       1.00483142        1 
H      -3.92392352       1.01770686       2.12854021        1 
C       2.57021513      -2.09351164       0.22109665        6 
H       3.61295481      -1.91679686      -0.05360051        1 
H       2.55116266      -2.62053235       1.17905156        1 
H       2.10427381      -2.72957646      -0.52422093        1 
C       1.02776300       2.08715535      -1.67462611        6 
H       1.96127660       2.20940418      -2.22993698        1 
H       0.27050849       1.66635806      -2.33397716        1 
H       0.67843436       3.06858418      -1.34980966        1 
