35
Lattice="0.0 0.0 0.0 0.0 0.0 0.0 0.0 0.0 0.0" Properties=species:S:1:pos:R:3:Z:I:1 pbc="F F F"
C       0.45311176       0.80504752       0.64915255        6 
C       0.11012539      -0.72761133       0.61449943        6 
C      -0.61775561       1.77488340       0.16957198        6 
C      -1.15157576      -1.08817322      -0.14787593        6 
O      -1.85109441       1.31496426       0.47194248        8 
O      -0.42603897       2.86952582      -0.29586544        8 
O      -2.06126254      -1.64825050       0.68262089        8 
O      -1.31659302      -0.99272504      -1.33849926        8 
C      -3.29953435      -2.04677964       0.07152492        6 
C      -2.95847541       2.15198142       0.09319174        6 
C       1.84874795       0.83386947      -0.08131026        6 
C       2.88544891       0.30105504       0.94553989        6 
C       2.54565957      -1.20991519       0.98692506        6 
C       1.40092834      -1.30781534      -0.05839790        6 
O       1.74233371      -0.27441179      -0.99202352        8 
H       0.59362252       1.10557049       1.69265030        1 
H      -0.00861051      -1.11325235       1.62589769        1 
H      -3.12225049      -2.78186719      -0.71506162        1 
H      -2.97695729       2.28233172      -0.98962692        1 
H       3.89255654       0.46845298       0.55987686        1 
H       2.81183303       0.79772847       1.91525564        1 
H       3.39091358      -1.81782939       0.65965534        1 
H       2.24045706      -1.56609739       1.97291820        1 
H      -3.89474971      -2.47847824       0.87338571        1 
H      -3.80612090      -1.18087611      -0.35877409        1 
H      -2.88396927       3.12715182       0.57602658        1 
H      -3.84746529       1.62357339       0.43075857        1 
C       1.28066020      -2.64980533      -0.74819340        6 
H       2.25052944      -2.93768338      -1.15956950        1 
H       0.97105167      -3.41715123      -0.03255372        1 
H       0.55674551      -2.61046667      -1.56140364        1 
C       2.28201299       2.07787873      -0.82464699        6 
H       3.27413954       1.90259438      -1.24806866        1 
H       1.59200229       2.32521492      -1.62872073        1 
H       2.33271389       2.93470822      -0.15054986        1 
