35
Lattice="0.0 0.0 0.0 0.0 0.0 0.0 0.0 0.0 0.0" Properties=species:S:1:pos:R:3:Z:I:1 pbc="F F F"
C       0.01123201       0.65929762       0.70773033        6 
C       0.45972465      -0.81962809       0.60916578        6 
C      -1.14291659       1.06543735      -0.18907140        6 
C      -0.54878412      -1.93161992       0.39208669        6 
O      -1.86950541       2.04143473       0.41228332        8 
O      -1.39062453       0.64034653      -1.28665544        8 
O      -1.82517085      -1.51425915       0.43233187        8 
O      -0.23897111      -3.10015256       0.35902850        8 
C      -2.83439053      -2.53442948       0.32301025        6 
C      -2.97028569       2.56066588      -0.35398433        6 
C       1.31576855       1.34916007       0.15261600        6 
C       2.50433883       1.00358712       1.10444584        6 
C       2.91195268      -0.41422266       0.61357333        6 
C       1.73336288      -0.73993742      -0.33191590        6 
O       1.57236075       0.52784171      -0.99230776        8 
H      -0.21025634       0.96360477       1.72937733        1 
H       0.83381246      -1.09139152       1.60179265        1 
H      -2.76657625      -3.23083396       1.16035192        1 
H      -3.66724057       1.76089673      -0.60910517        1 
H       3.31301395       1.72458722       0.97731359        1 
H       2.20272344       1.02612024       2.15437349        1 
H       3.83827155      -0.38140267       0.03672852        1 
H       3.03002162      -1.14479700       1.41622280        1 
H      -3.78327490      -2.00306366       0.33862181        1 
H      -2.71767041      -3.08235865      -0.61260808        1 
H      -2.61163726       3.02704755      -1.27338971        1 
H      -3.44951651       3.29796183       0.28661882        1 
C       1.93988736      -1.83786753      -1.34478587        6 
H       2.82425674      -1.61465073      -1.94651272        1 
H       2.07367665      -2.80006021      -0.85008091        1 
H       1.07720408      -1.91224725      -2.00934737        1 
C       1.20071960       2.80520767      -0.24136689        6 
H       2.15906845       3.16156581      -0.62522318        1 
H       0.44968458       2.94302544      -1.02126721        1 
H       0.92059416       3.41375722       0.62178198        1 
