35
Lattice="0.0 0.0 0.0 0.0 0.0 0.0 0.0 0.0 0.0" Properties=species:S:1:pos:R:3:Z:I:1 pbc="F F F"
C      -0.82726929       0.08181927      -0.80770576        6 
C       0.60976292      -0.53286569      -0.69766241        6 
C      -0.80492531       1.59633372      -0.63504868        6 
C       1.61497471       0.34116950       0.02342627        6 
O      -1.60950502       2.07694560       0.31871181        8 
O      -0.12370238       2.29489422      -1.34971635        8 
O       2.85536954       0.12922767      -0.46717478        8 
O       1.38010596       1.09535316       0.93457968        8 
C       3.91546060       0.87116161       0.16352914        6 
C      -1.54221300       3.49952067       0.53735481        6 
C      -1.66517001      -0.89240242       0.09794481        6 
C      -1.88661469      -2.17671617      -0.75179460        6 
C      -0.47105648      -2.80698097      -0.75671457        6 
C       0.31270034      -1.82275901       0.15289182        6 
O      -0.69427133      -1.35149310       1.05698437        8 
H      -1.15901535      -0.03302772      -1.84318607        1 
H       1.02440040      -0.79194120      -1.66971275        1 
H       4.00359765       0.59231944       1.21507350        1 
H      -1.80838961       4.04034656      -0.37170681        1 
H      -2.60247211      -2.82267536      -0.24037813        1 
H      -2.27888059      -1.96532691      -1.74857918        1 
H      -0.47379954      -3.80244494      -0.30907974        1 
H      -0.02868456      -2.88806475      -1.75171763        1 
H       4.81909735       0.60474197      -0.38017030        1 
H       3.72271133       1.94215459       0.08986789        1 
H      -0.53379845       3.77706403       0.84571971        1 
H      -2.25761032       3.70209214       1.33130256        1 
C       1.47378076      -2.42334139       0.91446098        6 
H       1.13196498      -3.29508842       1.47633736        1 
H       2.26313784      -2.73768448       0.22771083        1 
H       1.89168947      -1.70466497       1.62212607        1 
C      -2.90966423      -0.39778478       0.80228115        6 
H      -3.39857742      -1.24012858       1.29761373        1 
H      -2.66588361       0.36033228       1.54205945        1 
H      -3.61054193       0.03641477       0.08491819        1 
