35
Lattice="0.0 0.0 0.0 0.0 0.0 0.0 0.0 0.0 0.0" Properties=species:S:1:pos:R:3:Z:I:1 pbc="F F F"
C       0.04764060       0.90160157       0.55939415        6 
C       0.43858053      -0.58742595       0.91177382        6 
C      -1.36334090       1.05132263       0.03090170        6 
C      -0.63170869      -1.57422598       0.46632490        6 
O      -2.15782136       1.60259384       0.97411772        8 
O      -1.76312770       0.72635008      -1.06077767        8 
O      -0.50717426      -1.97312805      -0.80278807        8 
O      -1.52729723      -1.92958987       1.19989207        8 
C      -1.58592452      -2.76178437      -1.33648050        6 
C      -3.55442080       1.70703897       0.63770113        6 
C       1.20924353       1.30744565      -0.42163308        6 
C       2.41613044       1.65706952       0.48352321        6 
C       2.80010931       0.25741938       1.02851722        6 
C       1.84097198      -0.67842586       0.23056410        6 
O       1.62764996       0.05517770      -0.98584445        8 
H       0.09982944       1.50437676       1.46442729        1 
H       0.50313088      -0.70710179       1.99278957        1 
H      -2.49788651      -2.16403492      -1.36328818        1 
H      -3.97152785       0.71431586       0.46218136        1 
H       3.21537274       2.07485310      -0.13145684        1 
H       2.16885588       2.38265506       1.26100798        1 
H       3.83727958       0.00744514       0.79984715        1 
H       2.66585244       0.15806842       2.10792370        1 
H      -1.27627561      -3.02527256      -2.34521788        1 
H      -1.74806761      -3.65580388      -0.73292292        1 
H      -3.68857739       2.32022411      -0.25460323        1 
H      -4.02565657       2.17277068       1.50020230        1 
C       2.40237505      -2.05876788      -0.03757101        6 
H       3.38944118      -1.97051668      -0.49687260        1 
H       2.51115425      -2.60583346       0.90340617        1 
H       1.75550958      -2.62662060      -0.70310697        1 
C       0.88611777       2.31002771      -1.50604564        6 
H       1.78147032       2.51184767      -2.09835491        1 
H       0.10488056       1.93126871      -2.16395010        1 
H       0.54901282       3.25177147      -1.06320412        1 
