35
Lattice="0.0 0.0 0.0 0.0 0.0 0.0 0.0 0.0 0.0" Properties=species:S:1:pos:R:3:Z:I:1 pbc="F F F"
C      -0.38787186       0.57548903      -0.84027010        6 
C      -0.22895624      -0.97943521      -0.59646565        6 
C       0.85528676       1.42180358      -0.63116938        6 
C       1.07314342      -1.44759042       0.05127839        6 
O       1.10435705       1.66605438       0.67170859        8 
O       1.59076593       1.76619185      -1.52292281        8 
O       2.12852049      -0.89096727      -0.57423855        8 
O       1.19406347      -2.28027782       0.91403618        8 
C       3.43315446      -1.28471044      -0.11583542        6 
C       2.32119764       2.37666915       0.95768877        6 
C      -1.67467161       0.89852386       0.00219624        6 
C      -2.87724622       0.44072335      -0.85958188        6 
C      -2.72710029      -1.09794224      -0.80019204        6 
C      -1.54507639      -1.27773671       0.20110032        6 
O      -1.65037271      -0.10420923       1.03034100        8 
H      -0.60641515       0.72848313      -1.89741010        1 
H      -0.24016935      -1.49168265      -1.56261656        1 
H       3.58357203      -2.35496292      -0.26569843        1 
H       2.29347344       3.37573795       0.51944390        1 
H      -3.80409476       0.76468279      -0.38278919        1 
H      -2.85405090       0.85040830      -1.87121624        1 
H      -3.62446052      -1.57355133      -0.40202381        1 
H      -2.51454703      -1.55311179      -1.77008648        1 
H       4.13243674      -0.70958398      -0.71860786        1 
H       3.55050369      -1.05213891       0.94374027        1 
H       3.17894730       1.83522125       0.55596783        1 
H       2.37469314       2.43589424       2.04252126        1 
C      -1.65161092      -2.53463140       1.04022614        6 
H      -2.66021786      -2.59414617       1.45646500        1 
H      -1.47926794      -3.42065347       0.42374593        1 
H      -0.92622758      -2.54137833       1.84850265        1 
C      -1.81240404       2.28629680       0.59069653        6 
H      -2.78719726       2.38526591       1.07318947        1 
H      -1.03311080       2.47831115       1.32517421        1 
H      -1.74433724       3.04030473      -0.19916494        1 
