35
Lattice="0.0 0.0 0.0 0.0 0.0 0.0 0.0 0.0 0.0" Properties=species:S:1:pos:R:3:Z:I:1 pbc="F F F"
C      -0.26822943       0.54394271      -0.77649849        6 
C       0.01447988      -0.97052456      -0.44518186        6 
C       0.72012792       1.47627503      -0.06212991        6 
C       1.43468400      -1.31089048      -0.02551216        6 
O       0.15529411       2.50417340       0.58545713        8 
O       1.91873892       1.33180180      -0.12029252        8 
O       2.22932713      -1.28743977      -1.11701772        8 
O       1.80544089      -1.68628119       1.05865147        8 
C       3.63535025      -1.45767949      -0.87508123        6 
C       1.05983546       3.40537349       1.25458724        6 
C      -1.76896445       0.61398913      -0.34381734        6 
C      -2.56388982      -0.40005274      -1.23758149        6 
C      -2.32886446      -1.74268064      -0.50685032        6 
C      -1.20613137      -1.34223129       0.47558727        6 
O      -1.69228419      -0.05962069       0.92771971        8 
H      -0.13114788       0.73491401      -1.84358950        1 
H      -0.09184989      -1.51878187      -1.38390863        1 
H       3.83026596      -2.40953046      -0.37885070        1 
H       1.75911990       3.84343117       0.54155144        1 
H      -3.62007925      -0.13123700      -1.26590656        1 
H      -2.19896084      -0.40148039      -2.26794937        1 
H      -3.21033525      -2.04385860       0.06273015        1 
H      -2.04760025      -2.56464030      -1.16891780        1 
H       4.10415366      -1.43337496      -1.85655483        1 
H       4.00212340      -0.63739568      -0.25643609        1 
H       1.61675381       2.87428211       2.02734258        1 
H       0.42541340       4.17108051       1.69526549        1 
C      -1.00074692      -2.27359652       1.64788700        6 
H      -1.95929843      -2.43331481       2.14800109        1 
H      -0.62112021      -3.23925662       1.30575222        1 
H      -0.28384177      -1.86620394       2.35730830        1 
C      -2.48008244       1.94831981      -0.22289525        6 
H      -3.53571444       1.76785302      -0.00768079        1 
H      -2.05733847       2.56274938       0.56444381        1 
H      -2.41505048       2.49787142      -1.16670852        1 
