35
Lattice="0.0 0.0 0.0 0.0 0.0 0.0 0.0 0.0 0.0" Properties=species:S:1:pos:R:3:Z:I:1 pbc="F F F"
C      -0.47233664       0.57689504      -0.85608037        6 
C      -0.06170331      -0.91938961      -0.59942982        6 
C       0.49647975       1.71033497      -0.58127134        6 
C       1.27043726      -1.15050860       0.09904755        6 
O       1.18642564       1.56508966       0.55606339        8 
O       0.57982533       2.68387321      -1.29547528        8 
O       2.22643847      -1.38528756      -0.83806792        8 
O       1.50358145      -1.12102775       1.27783320        8 
C       3.56217984      -1.56967918      -0.33765755        6 
C       2.08523321       2.63094231       0.90955388        6 
C      -1.80272898       0.68756622      -0.00346426        6 
C      -2.91747412       0.01512511      -0.84003181        6 
C      -2.51390939      -1.47748947      -0.73868971        6 
C      -1.29532912      -1.42019174       0.23075686        6 
O      -1.59304860      -0.26987043       1.03933143        8 
H      -0.71676552       0.70247465      -1.91009977        1 
H       0.00054424      -1.43766775      -1.55587121        1 
H       3.60440904      -2.43042001       0.33163972        1 
H       1.53604151       3.56527642       1.03568018        1 
H      -3.88324093       0.19751627      -0.36423401        1 
H      -2.96613605       0.39462738      -1.86216801        1 
H      -3.31069023      -2.07920795      -0.29842129        1 
H      -2.25377703      -1.92378131      -1.70087168        1 
H       4.18195063      -1.73646648      -1.21603739        1 
H       3.89210677      -0.68085813       0.20273720        1 
H       2.84257398       2.76262020       0.13506394        1 
H       2.53965484       2.31987112       1.84716823        1 
C      -1.11391276      -2.65647017       1.08498337        6 
H      -2.05233540      -2.89197121       1.59169280        1 
H      -0.84170901      -3.51085327       0.45772985        1 
H      -0.33682313      -2.50385102       1.83098400        1 
C      -2.13622670       2.04677304       0.56699283        6 
H      -3.06123688       1.98602037       1.14410176        1 
H      -1.34192967       2.39756150       1.22787530        1 
H      -2.27120120       2.77562260      -0.23543553        1 
