35
Lattice="0.0 0.0 0.0 0.0 0.0 0.0 0.0 0.0 0.0" Properties=species:S:1:pos:R:3:Z:I:1 pbc="F F F"
C      -0.38347748       0.75833317      -0.89042837        6 
C      -0.37924573      -0.80988515      -0.80760751        6 
C       0.89472542       1.51285403      -0.55516740        6 
C       0.92587552      -1.57672424      -0.70331602        6 
O       1.24627587       1.44926863       0.73484441        8 
O       1.48369009       2.18654195      -1.37142836        8 
O       1.70631099      -1.21182351       0.32556495        8 
O       1.20879526      -2.47966158      -1.45792067        8 
C       2.93374093      -1.94697043       0.48251255        6 
C       2.44820403       2.14604275       1.09831401        6 
C      -1.57234900       1.08201309       0.08581651        6 
C      -2.88452212       0.56590803      -0.57806507        6 
C      -2.81858084      -0.95564075      -0.28733094        6 
C      -1.41705850      -1.07457208       0.35867166        6 
O      -1.35465241       0.12810851       1.13642498        8 
H      -0.61627569       1.06868249      -1.90800104        1 
H      -0.80022173      -1.19386864      -1.73549852        1 
H       3.55268818      -1.85008405      -0.41041917        1 
H       2.35697398       3.21245550       0.88484020        1 
H      -3.74810576       1.02819672      -0.09704924        1 
H      -2.92917142       0.80660996      -1.64234841        1 
H      -3.57609274      -1.25264809       0.44079979        1 
H      -2.93115236      -1.58219581      -1.17394869        1 
H       3.42621806      -1.50113333       1.34392847        1 
H       2.72540568      -3.00297671       0.66143327        1 
H       3.30114830       1.74485012       0.54791571        1 
H       2.56696574       1.97597709       2.16612487        1 
C      -1.18674701      -2.29374338       1.22145386        6 
H      -1.97085449      -2.36480987       1.97825631        1 
H      -1.21042945      -3.20071860       0.61173247        1 
H      -0.22204018      -2.23391289       1.72662631        1 
C      -1.66021468       2.49427965       0.62251155        6 
H      -2.51644493       2.57971718       1.29516288        1 
H      -0.76166444       2.76783530       1.17374368        1 
H      -1.79919416       3.20054355      -0.20067745        1 
