35
Lattice="0.0 0.0 0.0 0.0 0.0 0.0 0.0 0.0 0.0" Properties=species:S:1:pos:R:3:Z:I:1 pbc="F F F"
C       0.19289203       0.97941018       0.60551892        6 
C       0.42780833      -0.55323705       0.88275021        6 
C      -1.11778313       1.28203626      -0.10526789        6 
C      -0.72377304      -1.50241671       0.62668755        6 
O      -2.12498570       1.25222851       0.80495325        8 
O      -1.30033132       1.48037246      -1.27670755        8 
O      -1.21893299      -1.39469374      -0.61790439        8 
O      -1.13587183      -2.29263063       1.44320561        8 
C      -2.31507523      -2.26238635      -0.95359712        6 
C      -3.45406048       1.39773416       0.27412013        6 
C       1.47645571       1.32584562      -0.21271637        6 
C       2.68745760       1.22099770       0.76325391        6 
C       2.91515652      -0.30935140       0.84078788        6 
C       1.71706779      -0.83287204       0.01463152        6 
O       1.62519216       0.14720098      -1.02675312        8 
H       0.16360003       1.51643514       1.55439239        1 
H       0.65582744      -0.70083689       1.93721468        1 
H      -3.14304995      -2.11654933      -0.25811204        1 
H      -3.64473912       0.63414776      -0.48173018        1 
H       3.55140731       1.73620314       0.34056037        1 
H       2.47191424       1.67703784       1.73234137        1 
H       3.84472833      -0.59629783       0.34546473        1 
H       2.93505975      -0.70491145       1.85796274        1 
H      -2.60256628      -1.98238156      -1.96443020        1 
H      -1.99955211      -3.30653195      -0.91735086        1 
H      -3.58242506       2.38371076      -0.17558743        1 
H      -4.12205694       1.27456146       1.12370228        1 
C       1.87150569      -2.22406455      -0.55868889        6 
H       2.79747928      -2.28407331      -1.13451750        1 
H       1.91550008      -2.96503246       0.24395419        1 
H       1.03908652      -2.46869988      -1.21940427        1 
C       1.47022430       2.58219195      -1.05729575        6 
H       2.43982570       2.69408847      -1.54767615        1 
H       0.68849547       2.54678195      -1.81232551        1 
H       1.30813606       3.45844913      -0.42199267        1 
