35
Lattice="0.0 0.0 0.0 0.0 0.0 0.0 0.0 0.0 0.0" Properties=species:S:1:pos:R:3:Z:I:1 pbc="F F F"
C      -0.83927860      -0.10419525      -0.76486579        6 
C       0.70468760      -0.38174905      -0.73010016        6 
C      -1.20921276       1.37414077      -0.76229844        6 
C       1.51903209       0.70100008      -0.02399151        6 
O      -1.77079419       1.81142844       0.37310500        8 
O      -1.02310857       2.07026006      -1.73205799        8 
O       2.80023374       0.31246627       0.14199527        8 
O       1.14802614       1.82079864       0.22441091        8 
C       3.69765733       1.30497726       0.67462845        6 
C      -2.01491454       3.22777968       0.44172317        6 
C      -1.40017974      -1.15703842       0.26242221        6 
C      -1.54622907      -2.46677222      -0.54920770        6 
C      -0.06689532      -2.78478480      -0.87155567        6 
C       0.69437472      -1.76039933       0.03009887        6 
O      -0.25096242      -1.47033480       1.07566224        8 
H      -1.17944092      -0.40340738      -1.75932266        1 
H       1.12647783      -0.47629195      -1.73250370        1 
H       3.36660485       1.62833752       1.66239897        1 
H      -2.68269603       3.54276187      -0.36132454        1 
H      -1.98294265      -3.23562702       0.09111264        1 
H      -2.17821355      -2.35491786      -1.43275037        1 
H       0.19958737      -3.80554971      -0.59467036        1 
H       0.18260933      -2.65516759      -1.92723232        1 
H       4.66625620       0.81379879       0.73585218        1 
H       3.74364203       2.16914089       0.01034568        1 
H      -1.06949660       3.76586354       0.36308280        1 
H      -2.47501918       3.39513829       1.41335265        1 
C       1.96851819      -2.31982445       0.62812159        6 
H       1.74504979      -3.29130747       1.07505421        1 
H       2.73052527      -2.45555058      -0.14200236        1 
H       2.37349029      -1.66782405       1.39831429        1 
C      -2.58845651      -0.81619272       1.13312397        6 
H      -2.86942633      -1.69825431       1.71371371        1 
H      -2.35887434       0.00132291       1.81216313        1 
H      -3.44144158      -0.51942562       0.51794475        1 
