35
Lattice="0.0 0.0 0.0 0.0 0.0 0.0 0.0 0.0 0.0" Properties=species:S:1:pos:R:3:Z:I:1 pbc="F F F"
C       0.08066294       0.72374947       0.73295347        6 
C       0.63671035      -0.73914679       0.79415753        6 
C      -1.43223068       0.83013762       0.84216620        6 
C      -0.17491156      -1.82746797       0.09629134        6 
O      -2.03922431       1.43108829      -0.19340289        8 
O      -2.02136103       0.45098996       1.82705451        8 
O      -1.37354778      -1.40788551      -0.34148425        8 
O       0.24156999      -2.94127082      -0.11372984        8 
C      -2.16928078      -2.36905248      -1.05695682        6 
C      -3.47054865       1.53901343      -0.10567362        6 
C       0.95788785       1.37336574      -0.40852660        6 
C       2.22366181       1.87560162       0.32404290        6 
C       2.83294791       0.53540168       0.80341975        6 
C       1.98795732      -0.51802136       0.01636095        6 
O       1.49180118       0.23165089      -1.11139161        8 
H       0.38216963       1.19085987       1.67429795        1 
H       0.80164315      -1.07131541       1.82036356        1 
H      -2.36118636      -3.24370817      -0.43428241        1 
H      -3.76025320       2.11905030       0.77165074        1 
H       2.88042777       2.37401490      -0.39175237        1 
H       1.99860038       2.57572632       1.13150027        1 
H       3.88669659       0.44921483       0.53706873        1 
H       2.75370745       0.38721883       1.88309568        1 
H      -3.09813758      -1.85494508      -1.29398342        1 
H      -1.65758656      -2.67803876      -1.96933703        1 
H      -3.92127363       0.54726935      -0.04205438        1 
H      -3.77854132       2.04355455      -1.01917367        1 
C       2.79615102      -1.71245504      -0.44375533        6 
H       3.70258268      -1.35207436      -0.93587682        1 
H       3.08363668      -2.32806729       0.41148564        1 
H       2.24209858      -2.34035526      -1.13647838        1 
C       0.34941909       2.34676797      -1.39176241        6 
H       1.13297350       2.71240791      -2.06024130        1 
H      -0.43030828       1.87183485      -1.98349673        1 
H      -0.09070008       3.19846232      -0.86961620        1 
