35
Lattice="0.0 0.0 0.0 0.0 0.0 0.0 0.0 0.0 0.0" Properties=species:S:1:pos:R:3:Z:I:1 pbc="F F F"
C      -0.42608471       0.77559695      -0.82556984        6 
C      -0.35023395      -0.79440979      -0.87740552        6 
C       0.85720795       1.58190666      -0.74047132        6 
C       0.97901448      -1.44507203      -0.52261501        6 
O       1.60022099       1.31973517       0.34697856        8 
O       1.16332997       2.41135062      -1.56607517        8 
O       1.28763874      -1.38008871       0.77864113        8 
O       1.65678234      -2.02978461      -1.33811133        8 
C       2.54504991      -1.95890037       1.16113163        6 
C       2.82010662       2.07222237       0.47939716        6 
C      -1.47745523       1.00872192       0.33276189        6 
C      -2.86995968       0.80721247      -0.31246137        6 
C      -2.85530136      -0.71936681      -0.58085776        6 
C      -1.52386292      -1.15864276       0.09930531        6 
O      -1.35903425      -0.17563539       1.13337488        8 
H      -0.85881265       1.12081148      -1.76321172        1 
H      -0.55724436      -1.13726888      -1.89011576        1 
H       3.36431192      -1.48028137       0.62170020        1 
H       2.60292537       3.13684128       0.58069465        1 
H      -3.64238350       1.07355856       0.41172263        1 
H      -3.01754459       1.41236734      -1.20895901        1 
H      -3.69854190      -1.21914344      -0.10108664        1 
H      -2.87815918      -0.97576426      -1.64220153        1 
H       2.63116879      -1.77736822       2.23017892        1 
H       2.55846513      -3.02959436       0.94968637        1 
H       3.45897491       1.91799442      -0.39109260        1 
H       3.29533151       1.69099300       1.38051785        1 
C      -1.54742232      -2.56396967       0.66087778        6 
H      -2.39588390      -2.67318560       1.33995247        1 
H      -1.66215090      -3.28909261      -0.14969929        1 
H      -0.63493576      -2.79009546       1.21028829        1 
C      -1.31163513       2.25406811       1.17253065        6 
H      -2.10682399       2.30724823       1.91926338        1 
H      -0.35071198       2.24739067       1.68729471        1 
H      -1.36894423       3.14590681       0.54259520        1 
