35
Lattice="0.0 0.0 0.0 0.0 0.0 0.0 0.0 0.0 0.0" Properties=species:S:1:pos:R:3:Z:I:1 pbc="F F F"
C      -0.78824340      -0.19298014      -0.69527607        6 
C       0.76903829      -0.22887678      -0.72918723        6 
C      -1.35878901       0.96100547       0.10680606        6 
C       1.38902566       1.15030400      -0.55320073        6 
O      -2.50458674       1.40095163      -0.45923154        8 
O      -0.91636474       1.39610964       1.13998168        8 
O       2.56819577       1.14887802       0.08558063        8 
O       0.89675307       2.14401599      -1.03329243        8 
C       3.20372501       2.43481934       0.22983010        6 
C      -3.18064394       2.46266565       0.23753730        6 
C      -1.09223039      -1.54415501       0.04180543        6 
C      -0.66978949      -2.70718230      -0.90087411        6 
C       0.87064258      -2.71799194      -0.72101366        6 
C       1.08955345      -1.47531953       0.18465096        6 
O      -0.06495785      -1.55451828       1.04106649        8 
H      -1.22945588      -0.17027430      -1.68976540        1 
H       1.07652503      -0.47770757      -1.75124626        1 
H       2.55348818       3.11398367       0.78207084        1 
H      -2.53442423       3.33834420       0.31027478        1 
H      -1.11905459      -3.64258513      -0.56249589        1 
H      -0.99022492      -2.53767063      -1.93118781        1 
H       1.19711174      -3.61132542      -0.18549997        1 
H       1.42779506      -2.66373469      -1.65869993        1 
H       4.12008351       2.24225981       0.78335847        1 
H       3.42549371       2.86200277      -0.74908553        1 
H      -3.46572181       2.14116938       1.24089429        1 
H      -4.06330333       2.68485221      -0.35839769        1 
C       2.34921387      -1.51125780       1.01959939        6 
H       2.38062474      -2.45614593       1.56752044        1 
H       3.23598581      -1.44202415       0.38701070        1 
H       2.37255990      -0.68827937       1.73132781        1 
C      -2.46073392      -1.68324006       0.67244981        6 
H      -2.54640949      -2.65756672       1.15817327        1 
H      -2.62417735      -0.91090661       1.42604077        1 
H      -3.24135992      -1.60107484      -0.08762039        1 
