35
Lattice="0.0 0.0 0.0 0.0 0.0 0.0 0.0 0.0 0.0" Properties=species:S:1:pos:R:3:Z:I:1 pbc="F F F"
C      -0.30994675       0.52853261      -0.72958898        6 
C       0.13724999      -0.95164035      -0.50039069        6 
C       0.47012269       1.51668013       0.14055235        6 
C       1.59331655      -1.17650238      -0.12483205        6 
O      -0.11354025       2.72960966       0.17120732        8 
O       1.55070693       1.30909185       0.63586196        8 
O       2.37650220      -0.70560034      -1.12537962        8 
O       2.01990639      -1.80266953       0.81048882        8 
C       3.79243847      -0.77111044      -0.89080024        6 
C       0.59520089       3.75515204       0.89376335        6 
C      -1.81978040       0.39046705      -0.31479678        6 
C      -2.49171812      -0.65317078      -1.26936339        6 
C      -2.09625651      -2.00026582      -0.61497116        6 
C      -1.02503401      -1.52753976       0.39256327        6 
O      -1.66181672      -0.33953938       0.91479381        8 
H      -0.18392730       0.84762482      -1.76638091        1 
H       0.08010237      -1.44731869      -1.47432842        1 
H       4.11270308      -1.80397805      -0.74552237        1 
H       1.56537137       3.94393465       0.43197076        1 
H      -3.57252313      -0.51018801      -1.28464662        1 
H      -2.13211864      -0.55168616      -2.29634283        1 
H      -2.93531331      -2.43627568      -0.06902810        1 
H      -1.72157827      -2.74369002      -1.32193911        1 
H       4.25505384      -0.34905354      -1.78076247        1 
H       4.04915821      -0.18196466      -0.00896951        1 
H       0.74300151       3.45576169       1.93193365        1 
H      -0.03749216       4.63797356       0.83389472        1 
C      -0.71044453      -2.48889959       1.51466609        6 
H      -1.64422894      -2.77339439       2.00661609        1 
H      -0.22825317      -3.38850301       1.12768765        1 
H      -0.03895991      -2.04136969       2.24465533        1 
C      -2.67418011       1.62322682      -0.09863252        6 
H      -3.69666325       1.30845846       0.12236266        1 
H      -2.30906285       2.23190060       0.72389457        1 
H      -2.68706575       2.23942710      -1.00069596        1 
