35
Lattice="0.0 0.0 0.0 0.0 0.0 0.0 0.0 0.0 0.0" Properties=species:S:1:pos:R:3:Z:I:1 pbc="F F F"
C      -0.39471897       0.57940484      -0.92986176        6 
C      -0.05572092      -0.89430416      -0.59860266        6 
C       0.41437735       1.70328977      -0.30313106        6 
C       1.37115961      -1.40401251      -0.49236737        6 
O       0.95745467       1.38877737       0.88006045        8 
O       0.41862654       2.82596483      -0.75799799        8 
O       2.31711915      -0.45198753      -0.51045497        8 
O       1.63003895      -2.58542537      -0.54910412        8 
C       3.68038390      -0.91329334      -0.55583709        6 
C       1.63065947       2.45269270       1.56980063        6 
C      -1.83666412       0.63116269      -0.26610216        6 
C      -2.75295799      -0.42901179      -0.95854773        6 
C      -2.35818605      -1.73831802      -0.22075931        6 
C      -1.09992765      -1.26278261       0.53628317        6 
O      -1.54888795       0.02164084       1.00181279        8 
H      -0.43052937       0.77222126      -2.00126688        1 
H      -0.37284474      -1.46628310      -1.47509574        1 
H       3.84937841      -1.51948317      -1.44712376        1 
H       0.93412029       3.25975331       1.80311870        1 
H      -3.80235346      -0.17636651      -0.80223243        1 
H      -2.58277768      -0.47256730      -2.03692048        1 
H      -3.12454693      -2.03146226       0.50013871        1 
H      -2.16643586      -2.58220001      -0.88603847        1 
H       4.28751116      -0.01118310      -0.58260737        1 
H       3.91067817      -1.50642029       0.33021074        1 
H       2.44450013       2.84876587       0.96003752        1 
H       2.01735515       2.00640778       2.48335783        1 
C      -0.61365817      -2.11264835       1.68346141        6 
H      -1.41783941      -2.24336610       2.41101129        1 
H      -0.29477312      -3.09215663       1.32390017        1 
H       0.23203078      -1.63516018       2.18354045        1 
C      -2.47715784       1.98935875      -0.08750699        6 
H      -3.44970756       1.87054177       0.39521589        1 
H      -1.86498257       2.65157773       0.52424698        1 
H      -2.62214773       2.46748307      -1.05873945        1 
