35
Lattice="0.0 0.0 0.0 0.0 0.0 0.0 0.0 0.0 0.0" Properties=species:S:1:pos:R:3:Z:I:1 pbc="F F F"
C      -0.49474311       0.74601145      -0.70830676        6 
C      -0.08074507      -0.76990139      -0.81807014        6 
C       0.65559501       1.74072865      -0.74152264        6 
C       1.30776545      -1.04065213      -0.22205241        6 
O       1.02074494       2.19803523       0.46866014        8 
O       1.22072995       2.03348914      -1.76585180        8 
O       1.38352282      -2.15280830       0.52611141        8 
O       2.27623972      -0.36231630      -0.46371022        8 
C       2.68562368      -2.47346531       1.05151499        6 
C       2.22058268       2.99441306       0.49511865        6 
C      -1.60246022       0.70635540       0.41543472        6 
C      -2.91089780       0.39890967      -0.34601432        6 
C      -2.59846814      -1.01471358      -0.89042067        6 
C      -1.31013168      -1.40758213      -0.08737541        6 
O      -1.37396683      -0.55664647       1.07508726        8 
H      -0.99781107       0.98217918      -1.64795385        1 
H      -0.01167091      -1.07019719      -1.86652123        1 
H       3.04219673      -1.67008985       1.69702440        1 
H       2.10063067       3.89148537      -0.11394059        1 
H      -3.74211299       0.37496660       0.36190760        1 
H      -3.13873388       1.13343321      -1.12128044        1 
H      -3.40436515      -1.71813210      -0.67925618        1 
H      -2.42442183      -1.03202514      -1.96914123        1 
H       2.54679384      -3.39033540       1.62034946        1 
H       3.39743092      -2.62615317       0.23924343        1 
H       3.05793832       2.40680188       0.11721488        1 
H       2.37012291       3.25691340       1.54029136        1 
C      -1.31087038      -2.87289927       0.30514362        6 
H      -2.28958656      -3.12392274       0.72053045        1 
H      -1.14322540      -3.50060184      -0.57476491        1 
H      -0.54631150      -3.09733607       1.04065512        1 
C      -1.69089389       1.82552933       1.42749768        6 
H      -2.54441167       1.64503553       2.08528425        1 
H      -0.78443687       1.89125270       2.02492489        1 
H      -1.83933944       2.78452106       0.92460132        1 
