35
Lattice="0.0 0.0 0.0 0.0 0.0 0.0 0.0 0.0 0.0" Properties=species:S:1:pos:R:3:Z:I:1 pbc="F F F"
C      -0.77875792       0.46765003      -0.89765443        6 
C       0.24898533      -0.67469019      -0.67930421        6 
C      -0.47404337       1.78926046      -0.19882880        6 
C       1.69990384      -0.23921127      -0.77517143        6 
O       0.58400580       1.72828355       0.62753936        8 
O      -1.20304355       2.75144572      -0.25970088        8 
O       2.53862018      -1.01313193      -0.06245133        8 
O       2.07513499       0.64808774      -1.50266111        8 
C       3.94002342      -0.70799106      -0.19476741        6 
C       0.84376089       2.90413349       1.41222515        6 
C      -2.01273399      -0.17933088      -0.15924174        6 
C      -2.35239292      -1.54240918      -0.84733546        6 
C      -1.33433340      -2.50943791      -0.18734386        6 
C      -0.39381947      -1.49947964       0.50918917        6 
O      -1.36495703      -0.58661961       1.06183452        8 
H      -0.97960621       0.67726300      -1.94755148        1 
H       0.18392556      -1.31561717      -1.56719156        1 
H       4.13611252       0.31942734       0.11434001        1 
H      -0.01006016       3.12674373       2.05367115        1 
H      -3.38236920      -1.82855093      -0.63143524        1 
H      -2.24964409      -1.48316842      -1.93367959        1 
H      -1.81573272      -3.13218820       0.56940803        1 
H      -0.81890682      -3.16207955      -0.89568355        1 
H       4.45151086      -1.41095949       0.45914886        1 
H       4.26291011      -0.83858762      -1.22870302        1 
H       1.04159841       3.75803674       0.76285511        1 
H       1.72115640       2.66564643       2.00946698        1 
C       0.47243974      -2.04704445       1.61855590        6 
H      -0.17283356      -2.51624691       2.36551172        1 
H       1.17295837      -2.79056412       1.23771002        1 
H       1.04454775      -1.25201554       2.09660866        1 
C      -3.22894618       0.67207924       0.12954960        6 
H      -3.96548010       0.06639557       0.66280114        1 
H      -2.98542036       1.54409330       0.73182275        1 
H      -3.67534658       1.02221960      -0.80428045        1 
