35
Lattice="0.0 0.0 0.0 0.0 0.0 0.0 0.0 0.0 0.0" Properties=species:S:1:pos:R:3:Z:I:1 pbc="F F F"
C       0.06654658       0.86848922       0.53182941        6 
C       0.36974145      -0.61991275       0.86385434        6 
C      -1.38237499       1.24533571       0.29973900        6 
C      -0.43727007      -1.65520102       0.08622725        6 
O      -2.16696297       0.60398367       1.19939882        8 
O      -1.79705768       2.10454200      -0.43639591        8 
O      -1.30675417      -1.11135531      -0.78573565        8 
O      -0.22840646      -2.84385044       0.14003786        8 
C      -1.99365899      -2.02309277      -1.66004724        6 
C      -3.57370313       0.88564839       1.12146418        6 
C       1.18725421       1.23451636      -0.51242894        6 
C       2.38545488       1.69088309       0.34753727        6 
C       2.70669984       0.37790727       1.10971052        6 
C       1.85609798      -0.67845130       0.33068689        6 
O       1.66276698      -0.05669137      -0.95407762        8 
H       0.27829330       1.43523838       1.44641369        1 
H       0.29268390      -0.85329054       1.92577823        1 
H      -2.61947034      -2.70532691      -1.08226320        1 
H      -3.96760358       0.56912046       0.15364430        1 
H       3.21111709       1.98135980      -0.30541993        1 
H       2.14766729       2.53415975       0.99986045        1 
H       3.76549368       0.12358302       1.05431736        1 
H       2.43363136       0.41522208       2.16734281        1 
H      -2.60302072      -1.39662226      -2.30781648        1 
H      -1.27536300      -2.59907820      -2.24443535        1 
H      -3.76428708       1.95160023       1.25449799        1 
H      -4.03101379       0.31075834       1.92395839        1 
C       2.54173141      -2.01989363       0.18944803        6 
H       3.55089978      -1.86101660      -0.19779003        1 
H       2.61458656      -2.51003593       1.16319216        1 
H       2.00601062      -2.68655428      -0.48176932        1 
C       0.84371850       2.09539134      -1.70386240        6 
H       1.73438723       2.20704248      -2.32757173        1 
H       0.04781171       1.64451645      -2.29537817        1 
H       0.50481640       3.08124001      -1.38437063        1 
