35
Lattice="0.0 0.0 0.0 0.0 0.0 0.0 0.0 0.0 0.0" Properties=species:S:1:pos:R:3:Z:I:1 pbc="F F F"
C       0.04382070       0.62508878       0.68229147        6 
C       0.47073567      -0.87792478       0.61152354        6 
C      -1.19553664       0.97440855      -0.11220324        6 
C      -0.60936364      -1.81848115       0.09708549        6 
O      -1.81251285       2.04738996       0.43375631        8 
O      -1.59078848       0.42055544      -1.10708892        8 
O      -1.70689203      -1.68877092       0.88414092        8 
O      -0.52949595      -2.62296120      -0.79248204        8 
C      -2.85795115      -2.45285799       0.48349079        6 
C      -2.97812505       2.52260452      -0.26461380        6 
C       1.30578146       1.31578671       0.03944788        6 
C       2.47251940       1.18402420       1.05463012        6 
C       2.88268585      -0.29938278       0.87101696        6 
C       1.83277391      -0.79832139      -0.15941448        6 
O       1.65963572       0.37480857      -0.98038571        8 
H      -0.10626415       0.96657355       1.70494248        1 
H       0.65166192      -1.22828062       1.63193063        1 
H      -2.63280995      -3.52042847       0.48743099        1 
H      -3.73919217       1.74188411      -0.30812079        1 
H       3.28149137       1.86207897       0.77677181        1 
H       2.16306452       1.43151312       2.07210366        1 
H       3.88020737      -0.38199221       0.43613893        1 
H       2.87090305      -0.87698114       1.79763083        1 
H      -3.62924778      -2.22227540       1.21551117        1 
H      -3.17334204      -2.15236328      -0.51697853        1 
H      -2.71853385       2.82532024      -1.28042494        1 
H      -3.33419266       3.37427289       0.31059260        1 
C       2.28599638      -1.97227481      -0.99919896        6 
H       3.27350024      -1.75303388      -1.41260976        1 
H       2.35784493      -2.87396823      -0.38601916        1 
H       1.58888535      -2.17200053      -1.80867133        1 
C       1.11055474       2.69566366      -0.55009476        6 
H       2.05285909       3.04617478      -0.97622250        1 
H       0.36267477       2.68401823      -1.34548663        1 
H       0.79026460       3.40051717       0.22023345        1 
