35
Lattice="0.0 0.0 0.0 0.0 0.0 0.0 0.0 0.0 0.0" Properties=species:S:1:pos:R:3:Z:I:1 pbc="F F F"
C      -0.22064059       0.60776998      -0.68016450        6 
C      -0.14477273      -0.95644696      -0.60921147        6 
C       0.96952405       1.38620545      -0.15077665        6 
C       1.07955243      -1.51392313       0.10933019        6 
O       0.81364753       2.70009903      -0.43301843        8 
O       1.95981841       0.94682879       0.37644556        8 
O       2.07445985      -1.70745932      -0.78726867        8 
O       1.16583574      -1.80765121       1.27291494        8 
C       3.33767339      -2.11042844      -0.23090333        6 
C       1.87213043       3.57107693       0.00561854        6 
C      -1.58308037       0.88253727       0.09363724        6 
C      -2.72062506       0.55551931      -0.90524234        6 
C      -2.63077233      -0.98975913      -0.97519663        6 
C      -1.51063489      -1.30129304       0.06270561        6 
O      -1.65107332      -0.22187112       1.00243581        8 
H      -0.33483114       0.93520313      -1.71444876        1 
H      -0.10097254      -1.35645531      -1.62327251        1 
H       3.23613792      -3.05221047       0.31057786        1 
H       2.81987360       3.27923756      -0.44895619        1 
H      -3.67557348       0.87771583      -0.48527645        1 
H      -2.59023345       1.05309911      -1.86817185        1 
H      -3.56509057      -1.45686560      -0.65992189        1 
H      -2.38761063      -1.36973186      -1.96975099        1 
H       4.00662952      -2.22759765      -1.08108651        1 
H       3.70443287      -1.33768127       0.44619042        1 
H       1.96898567       3.53500294       1.09191580        1 
H       1.58040046       4.56721143      -0.31972091        1 
C      -1.65175811      -2.64652143       0.74203838        6 
H      -2.66175337      -2.74561106       1.14619380        1 
H      -1.49474025      -3.44951204       0.01549691        1 
H      -0.92978755      -2.75530756       1.54767928        1 
C      -1.74174358       2.17975116       0.85486228        6 
H      -2.70481737       2.16839051       1.36997578        1 
H      -0.95576844       2.29687428       1.60307122        1 
H      -1.70936147       3.03630166       0.18087039        1 
