35
Lattice="0.0 0.0 0.0 0.0 0.0 0.0 0.0 0.0 0.0" Properties=species:S:1:pos:R:3:Z:I:1 pbc="F F F"
C      -0.40213095       0.74155122      -0.71767041        6 
C      -0.15150022      -0.81046904      -0.80240683        6 
C       0.83426998       1.61578949      -0.85661900        6 
C       1.20082069      -1.19746471      -0.18161260        6 
O       1.20260899       2.23629312       0.27912109        8 
O       1.45869138       1.68362406      -1.88481013        8 
O       1.13108379      -2.10734838       0.80379438        8 
O       2.25053634      -0.73367109      -0.55523368        8 
C       2.38318999      -2.47864986       1.40961687        6 
C       2.44056764       2.97106351       0.21002376        6 
C      -1.47540116       0.83659755       0.44000827        6 
C      -2.82841177       0.68027444      -0.29074395        6 
C      -2.68585157      -0.75995937      -0.83950713        6 
C      -1.43522104      -1.29847914      -0.06162309        6 
O      -1.38318234      -0.44496485       1.10050304        8 
H      -0.92299574       0.99363142      -1.64467530        1 
H      -0.10652603      -1.12911486      -1.84578739        1 
H       2.86208255      -1.60574585       1.85493749        1 
H       2.36952413       3.77201487      -0.52746783        1 
H      -3.63965921       0.74756628       0.43713712        1 
H      -2.98983762       1.43628986      -1.06193359        1 
H      -3.56073699      -1.36950684      -0.61263793        1 
H      -2.53523903      -0.79701576      -1.92135905        1 
H       2.12557827      -3.20695382       2.17560299        1 
H       3.05242093      -2.91698100       0.66803502        1 
H       3.25558654       2.29990715      -0.06297041        1 
H       2.58960975       3.37986057       1.20709214        1 
C      -1.59068486      -2.76178430       0.30618995        6 
H      -2.55895005      -2.90549614       0.79138639        1 
H      -1.57509329      -3.37062058      -0.60287164        1 
H      -0.80661515      -3.10724890       0.97089901        1 
C      -1.40733371       1.95340970       1.45591299        6 
H      -2.26275060       1.87321200       2.13091614        1 
H      -0.48802560       1.90228736       2.03587330        1 
H      -1.44332680       2.92661214       0.96125826        1 
