35
Lattice="0.0 0.0 0.0 0.0 0.0 0.0 0.0 0.0 0.0" Properties=species:S:1:pos:R:3:Z:I:1 pbc="F F F"
C      -0.84619987       0.31974337      -0.83897736        6 
C       0.37146887      -0.66926773      -0.73923546        6 
C      -0.56663389       1.77896955      -0.51088755        6 
C       1.71560912      -0.00936909      -0.45186303        6 
O      -0.28615764       1.97515556       0.79116944        8 
O      -0.59437794       2.66220094      -1.33176280        8 
O       2.62035472      -0.87972421       0.03401457        8 
O       2.00157491       1.12336145      -0.75296018        8 
C       3.95719816      -0.37111042       0.20636899        6 
C       0.11579701       3.30990807       1.14514257        6 
C      -1.90180365      -0.38873534       0.07118377        6 
C      -2.41267299      -1.63143185      -0.70818188        6 
C      -1.21729100      -2.60483589      -0.56990741        6 
C      -0.20722424      -1.75946597       0.25621518        6 
O      -1.07970780      -0.97998213       1.08972982        8 
H      -1.20486030       0.35350051      -1.86722137        1 
H       0.53654594      -1.13507362      -1.71580080        1 
H       3.95736583       0.47238921       0.89774887        1 
H      -0.67903336       4.02328603       0.92124867        1 
H      -3.30618021      -2.02839884      -0.22310449        1 
H      -2.66978539      -1.39346809      -1.74210340        1 
H      -1.49566482      -3.49380997      -0.00126780        1 
H      -0.80368426      -2.93578682      -1.52477043        1 
H       4.53008898      -1.20152866       0.61315532        1 
H       4.36850106      -0.05034563      -0.75180287        1 
H       1.01476378       3.58327440       0.59085160        1 
H       0.31347614       3.27891634       2.21453458        1 
C       0.71828771      -2.58160142       1.12633149        6 
H       0.11144076      -3.25882924       1.73214503        1 
H       1.40493545      -3.17267213       0.51829020        1 
H       1.30680345      -1.95101701       1.78982226        1 
C      -2.99102044       0.47397238       0.67111394        6 
H      -3.67372926      -0.14567209       1.25690490        1 
H      -2.57010708       1.24008605       1.32081998        1 
H      -3.56475012       0.96151183      -0.12221599        1 
