35
Lattice="0.0 0.0 0.0 0.0 0.0 0.0 0.0 0.0 0.0" Properties=species:S:1:pos:R:3:Z:I:1 pbc="F F F"
C      -0.57817734       0.49421271       0.62405850        6 
C       0.80985693      -0.12093724       0.94046712        6 
C      -1.75996024      -0.43507055       0.43328822        6 
C       1.13265793      -1.52811358       0.46212679        6 
O      -2.90481097       0.28030279       0.58468765        8 
O      -1.76026570      -1.61519198       0.19481765        8 
O       0.78281109      -1.75817025      -0.80739884        8 
O       1.77958704      -2.30316969       1.13122457        8 
C       1.06258647      -3.07063134      -1.31800609        6 
C      -4.13258432      -0.44614013       0.39498037        6 
C      -0.24768306       1.52916784      -0.53587312        6 
C       0.22247827       2.81254665       0.18406398        6 
C       1.54116408       2.31086060       0.83462266        6 
C       1.72185507       0.90941147       0.17115776        6 
O       0.99608377       1.04661820      -1.05989623        8 
H      -0.87620845       1.08664940       1.49173728        1 
H       1.01766504      -0.11769438       2.00937745        1 
H       0.48849913      -3.81677715      -0.76622552        1 
H      -4.21139915      -1.25930645       1.11803612        1 
H       0.41866643       3.58814777      -0.55925987        1 
H      -0.50663078       3.19756584       0.89990493        1 
H       2.38581732       2.95669885       0.59026600        1 
H       1.48396018       2.23833429       1.92292692        1 
H       0.75123620      -3.04610015      -2.36001542        1 
H       2.12673853      -3.29834625      -1.23783194        1 
H      -4.18081421      -0.85820319      -0.61435619        1 
H      -4.92647153       0.28145828       0.54943477        1 
C       3.15269736       0.49234617      -0.08386958        6 
H       3.67404895       1.27672142      -0.63668020        1 
H       3.67273487       0.32403496       0.86198371        1 
H       3.19655172      -0.42732613      -0.66866532        1 
C      -1.26551972       1.69187208      -1.63922313        6 
H      -0.87754006       2.37523355      -2.39796257        1 
H      -1.47707805       0.73168015      -2.11560553        1 
H      -2.19787281       2.09702280      -1.24296506        1 
