35
Lattice="0.0 0.0 0.0 0.0 0.0 0.0 0.0 0.0 0.0" Properties=species:S:1:pos:R:3:Z:I:1 pbc="F F F"
C      -0.01912277       0.61716715      -0.71542202        6 
C      -0.38915439      -0.87641627      -0.55509479        6 
C       1.08536793       1.09841099       0.20982775        6 
C       0.70242509      -1.90075298      -0.30796683        6 
O       1.61202017       2.25258675      -0.26602278        8 
O       1.46722594       0.56318580       1.21774996        8 
O       1.91984394      -1.43731469      -0.64908505        8 
O       0.49148526      -3.06155377      -0.04754931        8 
C       3.00515123      -2.37634327      -0.55270588        6 
C       2.64571335       2.84960708       0.53682846        6 
C      -1.37548692       1.25567603      -0.21763945        6 
C      -2.52448204       0.78846402      -1.16557928        6 
C      -2.85760650      -0.62042761      -0.60326039        6 
C      -1.67255319      -0.83213621       0.36671747        6 
O      -1.59613551       0.47689533       0.96612615        8 
H       0.22325747       0.89791419      -1.73917269        1 
H      -0.73228131      -1.21149209      -1.54154308        1 
H       2.83818418      -3.22611805      -1.21669319        1 
H       3.49598785       2.17201334       0.62925201        1 
H      -3.37542794       1.46704664      -1.09028869        1 
H      -2.20677557       0.77300750      -2.21093855        1 
H      -3.78928739      -0.60832277      -0.03434859        1 
H      -2.92988607      -1.39685505      -1.36792104        1 
H       3.89291491      -1.82306933      -0.85091892        1 
H       3.10402894      -2.73331930       0.47315935        1 
H       2.26855669       3.08669196       1.53312309        1 
H       2.93398889       3.75721124       0.01091915        1 
C      -1.83650846      -1.88732367       1.43183475        6 
H      -2.73684100      -1.67356874       2.01345000        1 
H      -1.92287489      -2.87778004       0.98490178        1 
H      -0.97759263      -1.89305898       2.10403021        1 
C      -1.37969969       2.73299774       0.10772978        6 
H      -2.37242662       3.02419832       0.45755660        1 
H      -0.65825298       2.97039308       0.89032952        1 
H      -1.13148227       3.32211990      -0.77793929        1 
