35
Lattice="0.0 0.0 0.0 0.0 0.0 0.0 0.0 0.0 0.0" Properties=species:S:1:pos:R:3:Z:I:1 pbc="F F F"
C      -0.37938559       0.45303088      -0.77069171        6 
C       0.40250802      -0.84728700      -0.43633213        6 
C       0.00895770       1.58865524       0.19234948        6 
C       1.89827496      -0.78253083      -0.19215723        6 
O      -0.94302225       2.53829999       0.27467492        8 
O       1.09458674       1.73016977       0.69836140        8 
O       2.46330550       0.12684430      -1.01367835        8 
O       2.53964846      -1.59757791       0.42586330        8 
C       3.89489738       0.22655144      -0.95728474        6 
C      -0.61845183       3.69101003       1.07427788        6 
C      -1.82658133      -0.09264676      -0.45745012        6 
C      -2.09257477      -1.39201332      -1.29620678        6 
C      -1.42074713      -2.49364053      -0.43230290        6 
C      -0.58355472      -1.61722634       0.52093046        6 
O      -1.56525261      -0.60978903       0.86506815        8 
H      -0.22891402       0.79866509      -1.79443073        1 
H       0.42520305      -1.41643935      -1.37349529        1 
H       4.35993390      -0.73116742      -1.19716787        1 
H       0.26126211       4.19664531       0.67383131        1 
H      -3.16439089      -1.55768009      -1.40440490        1 
H      -1.67235245      -1.31746504      -2.30218953        1 
H      -2.16200585      -3.05438987       0.14112345        1 
H      -0.81610170      -3.19962934      -1.00610880        1 
H       4.16196410       0.97967944      -1.69563308        1 
H       4.20903649       0.54307383       0.03857622        1 
H      -0.42515278       3.39555553       2.10632723        1 
H      -1.49282496       4.33583879       1.01700866        1 
C      -0.04492136      -2.26701884       1.77128494        6 
H      -0.87763620      -2.68704434       2.34096276        1 
H       0.65980424      -3.06006753       1.52173364        1 
H       0.47812294      -1.54008851       2.39412258        1 
C      -3.02860319       0.83220681      -0.45584653        6 
H      -3.92900397       0.23972498      -0.27689534        1 
H      -2.95475034       1.60029787       0.30693467        1 
H      -3.12833009       1.32167002      -1.42857742        1 
