35
Lattice="0.0 0.0 0.0 0.0 0.0 0.0 0.0 0.0 0.0" Properties=species:S:1:pos:R:3:Z:I:1 pbc="F F F"
C      -0.78239753      -0.05016472      -0.71266681        6 
C       0.75355139      -0.18836913      -0.60031405        6 
C      -1.41300802       1.02462848       0.15934838        6 
C       1.54970620       1.08293273      -0.38502702        6 
O      -2.45651502       1.58846581      -0.50054744        8 
O      -1.10147861       1.32046712       1.28131576        8 
O       2.87520712       0.80698350      -0.44129316        8 
O       1.11763522       2.19768675      -0.24408580        8 
C       3.75891306       1.93230701      -0.28442940        6 
C      -3.18304179       2.59236659       0.22925400        6 
C      -1.20469588      -1.45258203      -0.13713029        6 
C      -0.61693138      -2.57169958      -1.05201681        6 
C       0.84830337      -2.67325874      -0.54383119        6 
C       0.91868340      -1.43246934       0.37466547        6 
O      -0.36201107      -1.51577269       1.02177678        8 
H      -1.11622848       0.08840359      -1.73983707        1 
H       1.11826850      -0.51823789      -1.57806997        1 
H       3.60776703       2.40370052       0.68783327        1 
H      -2.51382018       3.39677539       0.53723694        1 
H      -1.16328144      -3.50450681      -0.90256242        1 
H      -0.69075696      -2.31275607      -2.11094901        1 
H       0.99377785      -3.57393384       0.05638935        1 
H       1.59542327      -2.66608937      -1.34047407        1 
H       4.76438485       1.52393262      -0.36033628        1 
H       3.58220571       2.66792549      -1.07056579        1 
H      -3.65159818       2.15783710       1.11461248        1 
H      -3.93988289       2.96227682      -0.45940158        1 
C       2.01871132      -1.40146819       1.40843559        6 
H       1.94941612      -2.29554671       2.03210075        1 
H       2.99843358      -1.37395651       0.93061168        1 
H       1.91688585      -0.52370848       2.04989941        1 
C      -2.65960628      -1.62791829       0.23776753        6 
H      -2.81295086      -2.62215495       0.66300571        1 
H      -2.97079752      -0.88953954       0.97857820        1 
H      -3.29413761      -1.52552004      -0.64606836        1 
