35
Lattice="0.0 0.0 0.0 0.0 0.0 0.0 0.0 0.0 0.0" Properties=species:S:1:pos:R:3:Z:I:1 pbc="F F F"
C      -0.35642761       0.61521816      -0.88392103        6 
C      -0.07582527      -0.87091400      -0.55580764        6 
C       0.48616926       1.64171193      -0.14169267        6 
C       1.35828370      -1.32275588      -0.36621106        6 
O       1.12185149       1.13193624       0.92717361        8 
O       0.47632283       2.82189286      -0.40468406        8 
O       2.22160819      -0.49237939      -0.98998931        8 
O       1.69054500      -2.38879670       0.09282138        8 
C       3.60050332      -0.90091387      -0.99638535        6 
C       1.83525178       2.06808369       1.75134094        6 
C      -1.82802712       0.70872480      -0.31404117        6 
C      -2.72693611      -0.32114551      -1.07202763        6 
C      -2.41418241      -1.64647778      -0.32436770        6 
C      -1.18843442      -1.21818815       0.51098996        6 
O      -1.63002672       0.07960395       0.96378835        8 
H      -0.30512756       0.84695354      -1.94709184        1 
H      -0.32764919      -1.43751951      -1.46078236        1 
H       3.71327177      -1.86379685      -1.49711744        1 
H       1.15595594       2.82744143       2.14106703        1 
H      -3.77702900      -0.04126821      -0.98067229        1 
H      -2.48948430      -0.35951774      -2.13804972        1 
H      -3.23084895      -1.92299393       0.34581332        1 
H      -2.20955923      -2.49096689      -0.98593412        1 
H       4.13047530      -0.12093808      -1.53857810        1 
H       3.97648313      -0.98251321       0.02473562        1 
H       2.62701705       2.55432200       1.17862728        1 
H       2.25532205       1.47725087       2.56222601        1 
C      -0.82004147      -2.08572904       1.68841030        6 
H      -1.68499055      -2.18085013       2.34949841        1 
H      -0.50905131      -3.07580918       1.35533170        1 
H       0.00466103      -1.64314410       2.24820031        1 
C      -2.44989118       2.07862356      -0.16148636        6 
H      -3.44529588       1.97332163       0.27594525        1 
H      -1.85376529       2.73100629       0.47467082        1 
H      -2.54611282       2.55886053      -1.13813051        1 
