35
Lattice="0.0 0.0 0.0 0.0 0.0 0.0 0.0 0.0 0.0" Properties=species:S:1:pos:R:3:Z:I:1 pbc="F F F"
C       0.11143110       0.92740254       0.60761709        6 
C       0.46603333      -0.58652534       0.83845266        6 
C      -1.20603249       1.20413893      -0.10089639        6 
C      -0.53824647      -1.68607116       0.55401466        6 
O      -2.18957671       1.32751428       0.82790577        8 
O      -1.40722093       1.28891633      -1.28294796        8 
O      -1.38580133      -1.40876194      -0.44479965        8 
O      -0.52088477      -2.74439876       1.14002008        8 
C      -2.32120056      -2.43856783      -0.81099929        6 
C      -3.52037048       1.48974627       0.30862141        6 
C       1.36689867       1.40016404      -0.19784709        6 
C       2.58519881       1.36740537       0.77395931        6 
C       2.93534217      -0.14125734       0.80899673        6 
C       1.78385698      -0.73597257      -0.03380317        6 
O       1.60982584       0.26282180      -1.04495423        8 
H       0.05096880       1.42823647       1.57417706        1 
H       0.72118011      -0.74027473       1.88638073        1 
H      -2.97567306      -2.67493971       0.02956314        1 
H      -3.79982281       0.62102733      -0.29041965        1 
H       3.40381939       1.96080509       0.36358027        1 
H       2.33858531       1.77931855       1.75507261        1 
H       3.88490586      -0.33853964       0.30713375        1 
H       2.98823792      -0.56440472       1.81371743        1 
H      -2.88909761      -2.02424961      -1.64088460        1 
H      -1.79160533      -3.34127986      -1.11835090        1 
H      -3.58571851       2.38573417      -0.31043669        1 
H      -4.16573855       1.57765422       1.18004848        1 
C       2.04734560      -2.08751060      -0.65684346        6 
H       2.96450076      -2.04349132      -1.24782668        1 
H       2.16073014      -2.85182395       0.11445712        1 
H       1.22789188      -2.37930238      -1.31651721        1 
C       1.25294122       2.67375750      -1.00817004        6 
H       2.20629906       2.87769733      -1.50056897        1 
H       0.47369943       2.59135895      -1.76251333        1 
H       1.02253595       3.51745347      -0.35032838        1 
