35
Lattice="0.0 0.0 0.0 0.0 0.0 0.0 0.0 0.0 0.0" Properties=species:S:1:pos:R:3:Z:I:1 pbc="F F F"
C       0.12805184       0.68917163       0.62238689        6 
C       0.44566621      -0.85146252       0.65190335        6 
C      -1.17571919       1.05281269      -0.05177554        6 
C      -0.62182357      -1.69694900      -0.02850875        6 
O      -1.96117294       1.77105009       0.78203655        8 
O      -1.48238651       0.79620385      -1.19033754        8 
O      -1.78303817      -1.56765039       0.66256933        8 
O      -0.50971954      -2.40431630      -0.99339082        8 
C      -2.93583474      -2.19817060       0.07411941        6 
C      -3.23062043       2.18493180       0.24531479        6 
C       1.39350392       1.24741798      -0.13351979        6 
C       2.54093559       1.27553866       0.90557726        6 
C       2.83783545      -0.23631933       1.06999054        6 
C       1.87523738      -0.87844164       0.02538903        6 
O       1.77445968       0.15222383      -0.97465031        8 
H       0.08574143       1.08562165       1.63516911        1 
H       0.46683649      -1.19020470       1.69045311        1 
H      -2.77517329      -3.27160156      -0.03393260        1 
H      -3.81891467       1.31479205      -0.05038161        1 
H       3.39842718       1.80511426       0.48524171        1 
H       2.25772688       1.77543701       1.83372045        1 
H       3.87070990      -0.47174225       0.80935357        1 
H       2.65681212      -0.60859548       2.08092130        1 
H      -3.75633246      -2.00161306       0.76115716        1 
H      -3.13676245      -1.75998705      -0.90484136        1 
H      -3.08829707       2.83188070      -0.62165120        1 
H      -3.72411159       2.72488699       1.05041823        1 
C       2.38504534      -2.17239567      -0.57277918        6 
H       3.40934560      -2.02807796      -0.92451392        1 
H       2.39203309      -2.96113846       0.18539399        1 
H       1.75898274      -2.49635277      -1.39950925        1 
C       1.20668137       2.51266799      -0.94083776        6 
H       2.15106877       2.78892972      -1.41424407        1 
H       0.45611672       2.36935990      -1.71814931        1 
H       0.89380123       3.33562983      -0.29157768        1 
