35
Lattice="0.0 0.0 0.0 0.0 0.0 0.0 0.0 0.0 0.0" Properties=species:S:1:pos:R:3:Z:I:1 pbc="F F F"
C       0.05012125       0.84545428       0.50487076        6 
C       0.37792125      -0.63594190       0.84743997        6 
C      -1.40152224       1.22213680       0.29413464        6 
C      -0.38239641      -1.68317846       0.02881269        6 
O      -2.16926055       0.60944068       1.22710819        8 
O      -1.82463515       2.07570773      -0.44448625        8 
O      -1.38161274      -1.16061292      -0.70758737        8 
O      -0.05631561      -2.84202963      -0.06171682        8 
C      -2.04581467      -2.05890883      -1.61364060        6 
C      -3.57446189       0.90302791       1.17674020        6 
C       1.16433203       1.22148789      -0.54350752        6 
C       2.33629177       1.74008229       0.31525012        6 
C       2.67368985       0.46230739       1.12852869        6 
C       1.88046042      -0.64811614       0.35948315        6 
O       1.68861005      -0.06433778      -0.94571569        8 
H       0.26362640       1.41571456       1.41695295        1 
H       0.26679261      -0.86929719       1.90697671        1 
H      -2.50041155      -2.88541714      -1.06573488        1 
H      -3.99613328       0.56372977       0.22845527        1 
H       3.16546488       2.02713696      -0.33487169        1 
H       2.06595386       2.59996412       0.93250381        1 
H       3.74075222       0.23999617       1.11371995        1 
H       2.36740157       0.52551663       2.17587492        1 
H      -2.80627131      -1.45867127      -2.10842208        1 
H      -1.33433551      -2.45427451      -2.33983038        1 
H      -3.75213022       1.97402904       1.28481897        1 
H      -4.01694980       0.35482294       2.00581980        1 
C       2.63551600      -1.95725714       0.27196956        6 
H       3.65070497      -1.75524021      -0.07800796        1 
H       2.69560113      -2.42116080       1.25983254        1 
H       2.15988713      -2.66320158      -0.40248001        1 
C       0.79944342       2.03571674      -1.76081257        6 
H       1.68756920       2.15134375      -2.38738687        1 
H       0.01635972       1.54684449      -2.33983182        1 
H       0.43347677       3.02112562      -1.47190301        1 
