35
Lattice="0.0 0.0 0.0 0.0 0.0 0.0 0.0 0.0 0.0" Properties=species:S:1:pos:R:3:Z:I:1 pbc="F F F"
C       0.02914040       0.94461653       0.54519080        6 
C       0.38177250      -0.57425953       0.79888765        6 
C      -1.33729629       1.16500906      -0.07268426        6 
C      -0.74916191      -1.50682357       0.36765664        6 
O      -2.20322561       1.62657817       0.85086656        8 
O      -1.61914530       1.01651423      -1.23722517        8 
O      -0.38227657      -2.51429052      -0.43270186        8 
O      -1.88644256      -1.35153269       0.74884210        8 
C      -1.43743355      -3.39698886      -0.86553479        6 
C      -3.56910338       1.75660950       0.41766537        6 
C       1.24499948       1.40743529      -0.33324152        6 
C       2.42116277       1.62747015       0.64966337        6 
C       2.75826463       0.17251210       1.05433900        6 
C       1.80049952      -0.65584658       0.13847828        6 
O       1.64126216       0.19976855      -1.00503133        8 
H       0.02628338       1.47820067       1.49439624        1 
H       0.45532185      -0.74503685       1.87625295        1 
H      -2.18149767      -2.83872814      -1.43430112        1 
H      -3.96119076       0.77742815       0.13882948        1 
H       3.25252930       2.09326870       0.11726958        1 
H       2.15105158       2.27134463       1.48883356        1 
H       3.79503356      -0.07659003       0.82398296        1 
H       2.59620280      -0.03496469       2.11449915        1 
H      -0.94917805      -4.13891377      -1.49344940        1 
H      -1.91494994      -3.87056038      -0.00684698        1 
H      -3.64074005       2.43567377      -0.43321454        1 
H      -4.10863853       2.15442200       1.27442204        1 
C       2.37866563      -1.99671338      -0.26737633        6 
H       3.41208211      -1.85562332      -0.59211884        1 
H       2.37662605      -2.68634582       0.58107471        1 
H       1.80997357      -2.44612821      -1.07585576        1 
C       1.01259832       2.52757225      -1.32315991        6 
H       1.94682912       2.75877305      -1.83987784        1 
H       0.25870249       2.24839800      -2.05705461        1 
H       0.67823928       3.42900996      -0.80105203        1 
