35
Lattice="0.0 0.0 0.0 0.0 0.0 0.0 0.0 0.0 0.0" Properties=species:S:1:pos:R:3:Z:I:1 pbc="F F F"
C      -0.84266337       0.11843038      -0.91588433        6 
C       0.55430272      -0.51847645      -0.66433959        6 
C      -1.05889857       1.55799289      -0.46822434        6 
C       1.72173987       0.42081104      -0.43305320        6 
O      -0.85140175       1.74695500       0.84183170        8 
O      -1.47069971       2.41620445      -1.21426287        8 
O       2.87898777      -0.28162566      -0.46632406        8 
O       1.68872116       1.61699462      -0.29105936        8 
C       4.08599007       0.47738165      -0.26817118        6 
C      -0.97133447       3.10126519       1.30574875        6 
C      -1.74561861      -0.88751409      -0.12159192        6 
C      -1.65862028      -2.27789246      -0.82480327        6 
C      -0.31041427      -2.83207061      -0.28821733        6 
C       0.23484076      -1.59526582       0.46277053        6 
O      -0.96338206      -1.08844480       1.06479095        8 
H      -1.08662101       0.11517731      -1.97744097        1 
H       0.84885359      -1.06799104      -1.56136344        1 
H       4.07882541       0.95517235       0.71276161        1 
H      -1.96611384       3.49562504       1.09277468        1 
H      -2.49942377      -2.90425968      -0.52292262        1 
H      -1.68613018      -2.18761961      -1.91290794        1 
H      -0.47201105      -3.64309301       0.42474498        1 
H       0.36372466      -3.19014231      -1.06873211        1 
H       4.89632530      -0.24512745      -0.33592718        1 
H       4.18645502       1.24217548      -1.03954399        1 
H      -0.22022336       3.72622076       0.82011420        1 
H      -0.79643588       3.05513096       2.37843800        1 
C       1.28102133      -1.85290735       1.52154555        6 
H       0.87979985      -2.54775267       2.26289070        1 
H       2.18060208      -2.28420107       1.08118734        1 
H       1.55486070      -0.92704019       2.03222690        1 
C      -3.14710630      -0.42740369       0.21244058        6 
H      -3.66402417      -1.19970023       0.78635941        1 
H      -3.13117943       0.48806686       0.80446642        1 
H      -3.71162942      -0.24112568      -0.70482002        1 
