35
Lattice="0.0 0.0 0.0 0.0 0.0 0.0 0.0 0.0 0.0" Properties=species:S:1:pos:R:3:Z:I:1 pbc="F F F"
C       0.46552143       0.75315116       0.68005427        6 
C       0.09678576      -0.76630102       0.64395162        6 
C      -0.57437778       1.81438546       0.36592886        6 
C      -1.13974651      -1.13695283      -0.15904773        6 
O      -1.81568303       1.32441140       0.21424670        8 
O      -0.32734517       2.99710253       0.35368997        8 
O      -2.08773489      -1.65205446       0.66167415        8 
O      -1.27210552      -1.06693036      -1.35362289        8 
C      -3.31620648      -2.03835425       0.02382845        6 
C      -2.85997379       2.28091349      -0.04272483        6 
C       1.79730573       0.78878623      -0.18503529        6 
C       2.93101712       0.34863879       0.77205399        6 
C       2.56814010      -1.14225199       1.00034516        6 
C       1.39594327      -1.35113645      -0.00633558        6 
O       1.66750753      -0.37256564      -1.01865544        8 
H       0.73813876       1.00676585       1.70827792        1 
H      -0.04743224      -1.14753533       1.65415131        1 
H      -3.13319951      -2.79725882      -0.73848848        1 
H      -2.65752758       2.82133537      -0.96801876        1 
H       3.89065560       0.44714331       0.26112323        1 
H       2.96841614       0.94153591       1.68793845        1 
H       3.39936838      -1.80191363       0.74683027        1 
H       2.26960153      -1.36476925       2.02727447        1 
H      -3.94536370      -2.43571803       0.81756507        1 
H      -3.78869557      -1.17237928      -0.44360760        1 
H      -2.93796744       2.99036173       0.78221704        1 
H      -3.77111741       1.69402526      -0.13419412        1 
C       1.30570370      -2.74222544      -0.59578408        6 
H       2.26923925      -3.02100038      -1.02811612        1 
H       1.05911341      -3.46683726       0.18570994        1 
H       0.54931116      -2.79102711      -1.37857421        1 
C       2.07618097       2.00772824      -1.03205171        6 
H       3.01107932       1.85555720      -1.57645556        1 
H       1.27589357       2.17010135      -1.75524065        1 
H       2.15966188       2.90117294      -0.41319942        1 
