35
Lattice="0.0 0.0 0.0 0.0 0.0 0.0 0.0 0.0 0.0" Properties=species:S:1:pos:R:3:Z:I:1 pbc="F F F"
C      -0.80444666       0.19793298      -0.95152117        6 
C       0.54269024      -0.47861612      -0.60122788        6 
C      -1.12831404       1.56782652      -0.37265497        6 
C       1.80571640       0.35903345      -0.53736341        6 
O      -0.45045430       1.85652776       0.74069449        8 
O      -2.04341972       2.24225447      -0.79194372        8 
O       2.87876042      -0.47595396      -0.52843642        8 
O       1.91726277       1.55682036      -0.52050465        8 
C       4.16824946       0.15699753      -0.45221574        6 
C      -0.78912771       3.09147677       1.39073401        6 
C      -1.76769056      -0.83801492      -0.23226545        6 
C      -1.53730394      -2.25818838      -0.84573003        6 
C      -0.28740485      -2.75553827      -0.06996107        6 
C       0.15905491      -1.44186658       0.60445302        6 
O      -1.11047195      -0.93272747       1.04324351        8 
H      -0.98777223       0.24710641      -2.02433045        1 
H       0.77225808      -1.14107976      -1.44112277        1 
H       4.24798372       0.75444019       0.45748781        1 
H      -1.82393468       3.06845311       1.73739629        1 
H      -2.40713460      -2.89101663      -0.66569172        1 
H      -1.38321729      -2.21246554      -1.92642190        1 
H      -0.55887270      -3.48124448       0.69990682        1 
H       0.48261691      -3.19637601      -0.70625503        1 
H       4.89081168      -0.65620635      -0.44059875        1 
H       4.32947843       0.80157331      -1.31773112        1 
H      -0.65598656       3.93031487       0.70626690        1 
H      -0.10416441       3.17151373       2.23156847        1 
C       1.11653969      -1.54217078       1.76642282        6 
H       0.67591025      -2.16557777       2.54797580        1 
H       2.06058770      -1.98705554       1.44925042        1 
H       1.31795854      -0.55357527       2.18487097        1 
C      -3.22243151      -0.46009807      -0.06862473        6 
H      -3.74139696      -1.25394836       0.47330258        1 
H      -3.34288949       0.47362571       0.47913046        1 
H      -3.69252532      -0.33708927      -1.04699162        1 
