35
Lattice="0.0 0.0 0.0 0.0 0.0 0.0 0.0 0.0 0.0" Properties=species:S:1:pos:R:3:Z:I:1 pbc="F F F"
C      -0.29954119       0.81720651      -0.81701783        6 
C      -0.38339039      -0.76192951      -0.77395265        6 
C       1.05839351       1.33418328      -0.33685063        6 
C       0.95964047      -1.46544231      -0.85409971        6 
O       1.05234219       1.86820624       0.89684307        8 
O       2.06737107       1.20925856      -0.98796348        8 
O       1.41592678      -1.91244044       0.33342888        8 
O       1.60544519      -1.51327299      -1.86976649        8 
C       2.74635270      -2.46688700       0.32044125        6 
C       2.33317168       2.27986782       1.40788466        6 
C      -1.56142794       1.16138033       0.02690739        6 
C      -2.80676388       0.61296492      -0.74704252        6 
C      -2.81726616      -0.88021704      -0.34087231        6 
C      -1.44659475      -0.99816106       0.36892317        6 
O      -1.42341713       0.23203586       1.11862031        8 
H      -0.38540333       1.15530911      -1.85040090        1 
H      -0.84521533      -1.05972183      -1.71717707        1 
H       3.45841090      -1.72180410      -0.03665734        1 
H       2.78354502       3.03172544       0.75830096        1 
H      -3.71011391       1.12935949      -0.42072177        1 
H      -2.71104087       0.76413436      -1.82492913        1 
H      -3.61044611      -1.08893479       0.37965109        1 
H      -2.92417481      -1.56909657      -1.18137278        1 
H       2.95407966      -2.74249601       1.35217409        1 
H       2.78710687      -3.34355738      -0.32744263        1 
H       3.00350692       1.42210637       1.48071625        1 
H       2.13035598       2.69192885       2.39389293        1 
C      -1.30050526      -2.18791008       1.29008432        6 
H      -2.16201875      -2.23385837       1.96062750        1 
H      -1.26358166      -3.11556620       0.71278983        1 
H      -0.39047456      -2.11710715       1.88109181        1 
C      -1.74963517       2.58543584       0.50909129        6 
H      -2.68016705       2.65394222       1.07727288        1 
H      -0.92697602       2.91361871       1.13767755        1 
H      -1.82832620       3.25789174      -0.35058041        1 
