35
Lattice="0.0 0.0 0.0 0.0 0.0 0.0 0.0 0.0 0.0" Properties=species:S:1:pos:R:3:Z:I:1 pbc="F F F"
C      -0.77810554      -0.01638369      -0.76751380        6 
C       0.72891755      -0.39918580      -0.72083486        6 
C      -1.09627909       1.21461956       0.06916343        6 
C       1.64549016       0.81613528      -0.71345168        6 
O      -2.37923787       1.59167168      -0.11961933        8 
O      -0.32385549       1.82841312       0.76099390        8 
O       2.66690990       0.74406872       0.15105887        8 
O       1.48816813       1.73043771      -1.48771215        8 
C       3.53572992       1.89246137       0.19035210        6 
C      -2.80889185       2.75984052       0.60355889        6 
C      -1.38478169      -1.29545123      -0.07934048        6 
C      -1.02874425      -2.53716275      -0.95703174        6 
C       0.42445500      -2.84451368      -0.51101297        6 
C       0.74981381      -1.58329853       0.32483876        6 
O      -0.49228922      -1.41909814       1.04022831        8 
H      -1.16030624       0.13537032      -1.77617811        1 
H       0.96778987      -0.83379097      -1.69753150        1 
H       2.96575936       2.78010840       0.46696356        1 
H      -2.20016638       3.62221177       0.32870136        1 
H      -1.70379455      -3.36480759      -0.73521756        1 
H      -1.11645796      -2.31714759      -2.02365591        1 
H       0.45880894      -3.72307621       0.13636614        1 
H       1.11989152      -2.99917685      -1.33874285        1 
H       4.28214916       1.66198603       0.94742598        1 
H       4.00647570       2.05140706      -0.78084842        1 
H      -2.73057377       2.59247443       1.67911949        1 
H      -3.84642088       2.91299128       0.31470079        1 
C       1.88948743      -1.72416282       1.30614953        6 
H       1.70896590      -2.60290219       1.93046794        1 
H       2.83860917      -1.85309855       0.78324435        1 
H       1.96844595      -0.84426165       1.94214307        1 
C      -2.82180226      -1.25945525       0.39410935        6 
H      -3.07561657      -2.22530242       0.83701356        1 
H      -2.97842982      -0.48555437       1.14415948        1 
H      -3.49929641      -1.06716180      -0.44070570        1 
