35
Lattice="0.0 0.0 0.0 0.0 0.0 0.0 0.0 0.0 0.0" Properties=species:S:1:pos:R:3:Z:I:1 pbc="F F F"
C       0.36216256       0.85167650       0.70888976        6 
C       0.35501383      -0.70020278       0.88810527        6 
C      -0.91126467       1.65762667       0.54424078        6 
C      -0.89438966      -1.47188846       0.48957397        6 
O      -1.97101853       0.97072193       0.09224137        8 
O      -0.95704694       2.83573940       0.81721293        8 
O      -1.13854642      -1.46797911      -0.82925721        8 
O      -1.55174184      -2.10272748       1.28602534        8 
C      -2.31887608      -2.16561427      -1.25211975        6 
C      -3.19825904       1.71080863      -0.05028514        6 
C       1.43111001       1.04930334      -0.45172056        6 
C       2.81069225       1.01422954       0.24456703        6 
C       2.86761938      -0.46575235       0.70642970        6 
C       1.60599951      -1.07417137       0.01703185        6 
O       1.42252609      -0.21822746      -1.12133594        8 
H       0.78632406       1.28913990       1.61325086        1 
H       0.51019590      -0.95723453       1.93535809        1 
H      -3.20429033      -1.72569874      -0.78936538        1 
H      -3.06555617       2.53498093      -0.75213002        1 
H       3.58896987       1.23019528      -0.49007009        1 
H       2.89386216       1.73787312       1.05743550        1 
H       3.76851052      -0.96562245       0.34782940        1 
H       2.83373812      -0.58072426       1.79190082        1 
H      -2.35312672      -2.04749012      -2.33315735        1 
H      -2.26366464      -3.22148555      -0.98146091        1 
H      -3.51744712       2.10611591       0.91485364        1 
H      -3.92367320       0.99482421      -0.42993651        1 
C       1.75055478      -2.52376257      -0.39348545        6 
H       2.65357061      -2.65054232      -0.99456684        1 
H       1.83565868      -3.15806202       0.49301347        1 
H       0.89602525      -2.85534235      -0.98241062        1 
C       1.19084508       2.17703257      -1.42612432        6 
H       1.98617785       2.19449331      -2.17463214        1 
H       0.23659004       2.04829886      -1.94211277        1 
H       1.17267587       3.13536852      -0.90447234        1 
