35
Lattice="0.0 0.0 0.0 0.0 0.0 0.0 0.0 0.0 0.0" Properties=species:S:1:pos:R:3:Z:I:1 pbc="F F F"
C      -0.75377268      -0.19645012      -0.57921216        6 
C       0.76612792       0.01778878      -0.74573966        6 
C      -1.63149822       1.02888013      -0.42312133        6 
C       1.37348437       1.09153763       0.14362112        6 
O      -2.93529220       0.64989335      -0.43115949        8 
O      -1.28512777       2.17875246      -0.35590953        8 
O       2.53098840       1.53724293      -0.40950666        8 
O       0.93303607       1.50957108       1.17971696        8 
C       3.22559463       2.55095075       0.33776911        6 
C      -3.90071633       1.70984272      -0.31034682        6 
C      -0.83161120      -1.41342304       0.43873938        6 
C      -0.77128060      -2.67460419      -0.45032707        6 
C       0.65174589      -2.52441759      -1.05759775        6 
C       1.26072284      -1.37677269      -0.19148653        6 
O       0.48593699      -1.44337473       1.01502724        8 
H      -1.11267078      -0.58990696      -1.53618846        1 
H       1.06695233       0.18774648      -1.77830491        1 
H       3.50624013       2.17693120       1.32415982        1 
H      -3.82589442       2.39349662      -1.15762395        1 
H      -0.83817589      -3.56421983       0.17949847        1 
H      -1.56833904      -2.71666113      -1.19567747        1 
H       1.24074591      -3.43556300      -0.94065260        1 
H       0.64333574      -2.27199316      -2.12070017        1 
H       4.11159792       2.78866925      -0.24727422        1 
H       2.59442234       3.43277343       0.45756244        1 
H      -3.74300507       2.26699621       0.61429932        1 
H      -4.87131603       1.21822099      -0.30104731        1 
C       2.73617403      -1.52420330       0.10728666        6 
H       2.92525986      -2.51559263       0.52486298        1 
H       3.32275697      -1.41213653      -0.80759030        1 
H       3.07727523      -0.77912928       0.82701161        1 
C      -1.87465986      -1.38189037       1.52930335        6 
H      -1.73349741      -2.24508147       2.18370338        1 
H      -1.77716443      -0.47357356       2.12746610        1 
H      -2.87843176      -1.41570872       1.10512025        1 
