35
Lattice="0.0 0.0 0.0 0.0 0.0 0.0 0.0 0.0 0.0" Properties=species:S:1:pos:R:3:Z:I:1 pbc="F F F"
C       0.05016714       0.85732156       0.62334648        6 
C       0.52445109      -0.62705888       0.77033494        6 
C      -1.23155562       1.10156649      -0.16137043        6 
C      -0.40891760      -1.80268617       0.56049247        6 
O      -2.22856786       1.43863787       0.69751962        8 
O      -1.38907295       1.03045919      -1.35093378        8 
O      -1.47382065      -1.54855969      -0.21032075        8 
O      -0.18571612      -2.88795673       1.04771060        8 
C      -2.36424826      -2.65002191      -0.46571272        6 
C      -3.51769356       1.65509462       0.09888252        6 
C       1.29377317       1.46409710      -0.11187729        6 
C       2.51311583       1.38930393       0.85909059        6 
C       2.96570352      -0.08634330       0.70372050        6 
C       1.81642358      -0.65279326      -0.15818242        6 
O       1.58273739       0.42981214      -1.06645793        8 
H      -0.08893961       1.30079149       1.60872057        1 
H       0.85784682      -0.77495155       1.79781374        1 
H      -2.79801106      -3.01366439       0.46698288        1 
H      -3.84849386       0.75642079      -0.42447184        1 
H       3.28936204       2.08629111       0.53922714        1 
H       2.23567461       1.65001765       1.88308252        1 
H       3.90148696      -0.15581034       0.14538223        1 
H       3.09089537      -0.61386330       1.65114745        1 
H      -3.13374651      -2.24838664      -1.12118399        1 
H      -1.82955705      -3.46472567      -0.95557722        1 
H      -3.47894660       2.48491545      -0.60888144        1 
H      -4.18779308       1.88727538       0.92397989        1 
C       2.09921080      -1.93074224      -0.91150217        6 
H       2.99174874      -1.80187511      -1.52735287        1 
H       2.26056553      -2.75779449      -0.21807957        1 
H       1.26290618      -2.18506770      -1.56613021        1 
C       1.11365804       2.80467996      -0.79080626        6 
H       2.04667871       3.09584715      -1.27791729        1 
H       0.32671073       2.76434822      -1.54238380        1 
H       0.86245378       3.56910935      -0.04946900        1 
