35
Lattice="0.0 0.0 0.0 0.0 0.0 0.0 0.0 0.0 0.0" Properties=species:S:1:pos:R:3:Z:I:1 pbc="F F F"
C      -0.40733404       0.53487723      -0.82826533        6 
C      -0.21071966      -1.01579256      -0.58730237        6 
C       0.84192365       1.39476014      -0.75872423        6 
C       1.05474183      -1.42571479       0.16944668        6 
O       1.11349845       1.83656581       0.48575920        8 
O       1.56780261       1.58807662      -1.70241037        8 
O       2.14233013      -0.88945467      -0.41755469        8 
O       1.13161858      -2.19680923       1.09231542        8 
C       3.41641123      -1.22741598       0.15604415        6 
C       2.34210736       2.56855398       0.63932766        6 
C      -1.66571885       0.84249583       0.07079854        6 
C      -2.88688670       0.44934360      -0.79454009        6 
C      -2.71129399      -1.08522601      -0.87459601        6 
C      -1.55345047      -1.34387972       0.14255077        6 
O      -1.65319558      -0.22029932       1.03948332        8 
H      -0.70272733       0.65110364      -1.87223232        1 
H      -0.13784342      -1.52330456      -1.55283227        1 
H       3.58343867      -2.30451034       0.10909918        1 
H       2.32353911       3.47819826       0.03723369        1 
H      -3.80179936       0.71361127      -0.26049196        1 
H      -2.90253782       0.94793286      -1.76570420        1 
H      -3.61204417      -1.61021218      -0.55434799        1 
H      -2.46129503      -1.44283465      -1.87603366        1 
H       4.15031323      -0.69817460      -0.44762202        1 
H       3.46245361      -0.90314350       1.19697409        1 
H       3.18919688       1.95419431       0.33116022        1 
H       2.40533144       2.81036649       1.69800432        1 
C      -1.69896034      -2.65354095       0.89106573        6 
H      -2.71721836      -2.72605272       1.28065227        1 
H      -1.53061478      -3.49497715       0.21295129        1 
H      -0.99003264      -2.72793679       1.70949519        1 
C      -1.77543206       2.19061670       0.74857588        6 
H      -2.74392085       2.26753282       1.24789875        1 
H      -0.98455158       2.32519121       1.48272506        1 
H      -1.70545360       2.99514846       0.01090892        1 
