35
Lattice="0.0 0.0 0.0 0.0 0.0 0.0 0.0 0.0 0.0" Properties=species:S:1:pos:R:3:Z:I:1 pbc="F F F"
C      -0.76273907       0.17743490       0.80325291        6 
C       0.79537711       0.32713381       0.72617089        6 
C      -1.25983577      -1.07008204       0.06315381        6 
C       1.56064469      -0.98759348       0.78897531        6 
O      -2.54440074      -0.96835847      -0.32436642        8 
O      -0.64014869      -2.09970155      -0.04258764        8 
O       2.20980969      -1.31364359      -0.33874773        8 
O       1.57304863      -1.66153646       1.79069231        8 
C       2.82348261      -2.61612310      -0.34763891        6 
C      -3.11525355      -2.14131088      -0.93583158        6 
C      -1.16490301       1.53092669       0.11717335        6 
C      -0.54390880       2.70273546       0.94899419        6 
C       0.90403058       2.76666168       0.40507715        6 
C       0.97181956       1.43737694      -0.38110049        6 
O      -0.31213162       1.46071076      -1.04551854        8 
H      -1.11443999       0.09286296       1.83408914        1 
H       1.09474804       0.77715469       1.67549305        1 
H       2.05875553      -3.38107489      -0.20799815        1 
H      -3.10774570      -2.97785502      -0.23570091        1 
H      -1.08899573       3.62853417       0.76360683        1 
H      -0.59309826       2.50470114       2.02255329        1 
H       1.02772790       3.60131868      -0.28786471        1 
H       1.66720314       2.84364345       1.18252409        1 
H       3.29016944      -2.70881666      -1.32606490        1 
H       3.56906849      -2.69615056       0.44470582        1 
H      -2.55335906      -2.41396390      -1.82981078        1 
H      -4.13514136      -1.86331666      -1.19288322        1 
C       2.08309495       1.33638344      -1.39980261        6 
H       2.06720953       2.22669167      -2.03336740        1 
H       3.05494485       1.27673834      -0.90522149        1 
H       1.96552327       0.45139255      -2.02178122        1 
C      -2.60062627       1.80651346      -0.28629986        6 
H      -2.67188922       2.83242477      -0.65498597        1 
H      -2.94189578       1.12966508      -1.06302607        1 
H      -3.26480231       1.70315684       0.57551007        1 
