35
Lattice="0.0 0.0 0.0 0.0 0.0 0.0 0.0 0.0 0.0" Properties=species:S:1:pos:R:3:Z:I:1 pbc="F F F"
C      -0.37130735       0.59279809      -0.82118381        6 
C      -0.25029581      -0.97586351      -0.66756732        6 
C       0.91061061       1.40431029      -0.71286388        6 
C       1.00837888      -1.58106122      -0.04477754        6 
O       1.17712513       1.83453734       0.53404228        8 
O       1.63273568       1.61632715      -1.65672048        8 
O       2.09546683      -0.81020632      -0.20205553        8 
O       1.05665355      -2.67526448       0.46257553        8 
C       3.34103435      -1.34534984       0.27973086        6 
C       2.41079108       2.55251790       0.69972265        6 
C      -1.60539547       0.91817397       0.09973526        6 
C      -2.86063322       0.57260393      -0.74064987        6 
C      -2.76574870      -0.96887600      -0.81296346        6 
C      -1.56923852      -1.27159063       0.14143659        6 
O      -1.59202875      -0.15716641       1.05230639        8 
H      -0.66092669       0.78082288      -1.85626244        1 
H      -0.30029367      -1.44346611      -1.65478320        1 
H       3.52511045      -2.32960408      -0.15157752        1 
H       2.40869121       3.46271982       0.09797719        1 
H      -3.75206039       0.88684073      -0.19443507        1 
H      -2.86950111       1.06526539      -1.71477092        1 
H      -3.67200360      -1.44542858      -0.43669196        1 
H      -2.58854602      -1.34737422      -1.82202030        1 
H       4.10057498      -0.63595599      -0.04107545        1 
H       3.32033034      -1.42567433       1.36770395        1 
H       3.25485772       1.92978949       0.39999563        1 
H       2.46691859       2.79328481       1.75916623        1 
C      -1.72458964      -2.56979639       0.90604922        6 
H      -2.71286752      -2.57617059       1.37260211        1 
H      -1.64893925      -3.42597507       0.23290686        1 
H      -0.96603474      -2.68054645       1.67615288        1 
C      -1.67649888       2.25983235       0.79715876        6 
H      -2.63517089       2.34748730       1.31341154        1 
H      -0.87167753       2.37173146       1.51912133        1 
H      -1.60523625       3.07212919       0.06811841        1 
