35
Lattice="0.0 0.0 0.0 0.0 0.0 0.0 0.0 0.0 0.0" Properties=species:S:1:pos:R:3:Z:I:1 pbc="F F F"
C      -0.35532661       0.61742258      -0.86180986        6 
C      -0.22307049      -0.92550807      -0.60954269        6 
C       0.79312479       1.47947375      -0.37092871        6 
C       1.14601992      -1.43056927      -0.18043098        6 
O       1.07093475       1.26973319       0.93101898        8 
O       1.39242839       2.26620894      -1.06286884        8 
O       2.11181285      -0.77445277      -0.86063127        8 
O       1.37527925      -2.36248606       0.54795188        8 
C       3.46681375      -1.18809048      -0.61499684        6 
C       2.18065249       2.00811526       1.46735309        6 
C      -1.70803629       0.91800562      -0.13113297        6 
C      -2.84206050       0.27856005      -0.97840079        6 
C      -2.70594874      -1.22086488      -0.60963947        6 
C      -1.46105791      -1.20902812       0.31936820        6 
O      -1.63337978       0.04599617       1.00552412        8 
H      -0.43180000       0.83654829      -1.92540838        1 
H      -0.37442583      -1.44115990      -1.56395635        1 
H       3.60630549      -2.23050979      -0.90510715        1 
H       1.98632828       3.08099329       1.42192909        1 
H      -3.80869267       0.68131836      -0.67036159        1 
H      -2.72176290       0.48009611      -2.04491827        1 
H      -3.57149124      -1.56729302      -0.04221656        1 
H      -2.58597766      -1.87764576      -1.47400306        1 
H       4.08229950      -0.53191629      -1.22623666        1 
H       3.71291825      -1.07448481       0.44200160        1 
H       3.08979771       1.78716270       0.90521017        1 
H       2.27546059       1.67906760       2.49972902        1 
C      -1.40711699      -2.34496903       1.31683527        6 
H      -2.35649397      -2.38198469       1.85658057        1 
H      -1.25365493      -3.29895133       0.80876683        1 
H      -0.59466940      -2.21026708       2.02712256        1 
C      -1.94660590       2.35110878       0.29090711        6 
H      -2.90985845       2.43179987       0.79902624        1 
H      -1.16891470       2.69538816       0.97409939        1 
H      -1.95914135       3.00618209      -0.58395393        1 
