35
Lattice="0.0 0.0 0.0 0.0 0.0 0.0 0.0 0.0 0.0" Properties=species:S:1:pos:R:3:Z:I:1 pbc="F F F"
C      -0.50472152       0.39783497      -0.68377340        6 
C       0.39959165      -0.88316343      -0.55756178        6 
C       0.06269976       1.67960506      -0.08627405        6 
C       1.77012956      -0.66118060       0.06938162        6 
O      -0.84145882       2.67864896      -0.16246089        8 
O       1.19352162       1.85858755       0.29143157        8 
O       2.64436696      -0.29608919      -0.89691119        8 
O       2.08728916      -0.85397290       1.21449335        8 
C       3.95049596       0.08926324      -0.43686864        6 
C      -0.40041586       3.96876405       0.30091353        6 
C      -1.84673146      -0.13136030      -0.03139305        6 
C      -2.47501571      -1.12333053      -1.05216083        6 
C      -1.58282723      -2.37468148      -0.87101947        6 
C      -0.55128243      -1.88259600       0.18096728        6 
O      -1.35040736      -1.00465847       0.99261785        8 
H      -0.68172075       0.64127192      -1.73363442        1 
H       0.61038573      -1.25132959      -1.56275713        1 
H       4.43369924      -0.73624923       0.08812705        1 
H       0.45607554       4.31048817      -0.28196499        1 
H      -3.51056091      -1.32858169      -0.77611861        1 
H      -2.47333759      -0.72539920      -2.06914805        1 
H      -2.15054726      -3.20878043      -0.45475979        1 
H      -1.11019704      -2.71747848      -1.79354332        1 
H       4.50891036       0.35274394      -1.33288889        1 
H       3.86507015       0.94755591       0.23109253        1 
H      -0.12147880       3.91907316       1.35434884        1 
H      -1.25130341       4.63160871       0.16031174        1 
C       0.06038103      -2.98821283       1.01374368        6 
H      -0.73815917      -3.60041741       1.43888622        1 
H       0.68613979      -3.63028055       0.38667653        1 
H       0.67331749      -2.58471384       1.81572315        1 
C      -2.83760322       0.84081849       0.57294751        6 
H      -3.68093414       0.26976796       0.96793854        1 
H      -2.39443534       1.40878319       1.38994640        1 
H      -3.20613089       1.54384336      -0.17514121        1 
