35
Lattice="0.0 0.0 0.0 0.0 0.0 0.0 0.0 0.0 0.0" Properties=species:S:1:pos:R:3:Z:I:1 pbc="F F F"
C      -0.00920469       0.96624530       0.48655114        6 
C       0.31046390      -0.55385630       0.76622242        6 
C      -1.41467958       1.25435352      -0.00921533        6 
C      -0.71896558      -1.49412010       0.13401077        6 
O      -2.24122172       1.40569938       1.04751273        8 
O      -1.75799364       1.42523723      -1.15249774        8 
O      -0.19435842      -2.56014440      -0.48547499        8 
O      -1.91128480      -1.32589822       0.23531041        8 
C      -1.13621996      -3.48024337      -1.07294418        6 
C      -3.63967362       1.52271091       0.73484390        6 
C       1.20831415       1.39572699      -0.41213532        6 
C       2.34351873       1.73200136       0.58064822        6 
C       2.61847275       0.34070142       1.19635672        6 
C       1.79072880      -0.60746233       0.26411349        6 
O       1.68105912       0.14612041      -0.95719210        8 
H       0.05295408       1.49484723       1.43864895        1 
H       0.24361043      -0.75647488       1.83884221        1 
H      -1.74530721      -2.97002972      -1.81968084        1 
H      -3.97508233       0.62295146       0.21726865        1 
H       3.20830866       2.09479479       0.02166343        1 
H       2.06196582       2.49331416       1.31124417        1 
H       3.67650262       0.08054037       1.15611008        1 
H       2.29914803       0.26221313       2.23860151        1 
H      -0.52800664      -4.25444147      -1.53530874        1 
H      -1.78466777      -3.90473583      -0.30538637        1 
H      -3.82391549       2.39747021       0.10922347        1 
H      -4.14431505       1.62327917       1.69344705        1 
C       2.48058951      -1.93654129       0.02274547        6 
H       3.53582880      -1.75360080      -0.19258724        1 
H       2.41604818      -2.56538905       0.91463887        1 
H       2.03749301      -2.47327633      -0.80976724        1 
C       0.98667795       2.41073934      -1.51041578        6 
H       1.93688060       2.61196019      -2.01116409        1 
H       0.26042910       2.05290968      -2.23660613        1 
H       0.61374641       3.34838653      -1.08933520        1 
