35
Lattice="0.0 0.0 0.0 0.0 0.0 0.0 0.0 0.0 0.0" Properties=species:S:1:pos:R:3:Z:I:1 pbc="F F F"
C      -0.74319568      -0.23592930      -0.63916689        6 
C       0.79363632      -0.06276797      -0.71352860        6 
C      -1.52859220       1.05198345      -0.47942123        6 
C       1.33850729       1.05774266       0.15593043        6 
O      -2.82293125       0.80939171      -0.18768999        8 
O      -1.09483353       2.15688525      -0.69143684        8 
O       2.45040334       1.58234723      -0.41137236        8 
O       0.89809637       1.42000804       1.21540948        8 
C       3.08435499       2.64303639       0.32529118        6 
C      -3.67997820       1.96362170      -0.10211103        6 
C      -0.90266085      -1.48240067       0.32872693        6 
C      -0.74815332      -2.72239163      -0.58392802        6 
C       0.73577174      -2.58437631      -1.02112979        6 
C       1.24197086      -1.43555126      -0.09586751        6 
O       0.35499464      -1.51665786       1.02820885        8 
H      -1.08118529      -0.56713703      -1.62837292        1 
H       1.15987376       0.06845427      -1.73046401        1 
H       3.38183059       2.29755132       1.31689751        1 
H      -3.71387996       2.48500283      -1.05999564        1 
H      -0.89938128      -3.62576849       0.01060227        1 
H      -1.45661148      -2.73641559      -1.41503799        1 
H       1.30064844      -3.49830030      -0.82994599        1 
H       0.85476759      -2.33741618      -2.07876507        1 
H       3.95695548       2.92283940      -0.26109624        1 
H       2.40301264       3.48878720       0.42966953        1 
H      -3.32065265       2.64787963       0.66747394        1 
H      -4.66208125       1.57445814       0.15785997        1 
C       2.68419937      -1.54905565       0.34469794        6 
H       2.85817179      -2.53290050       0.78579130        1 
H       3.35473048      -1.42495868      -0.50909407        1 
H       2.93025067      -0.79210232       1.09119020        1 
C      -2.03912255      -1.52237481       1.32328800        6 
H      -1.93205053      -2.41738746       1.94075377        1 
H      -2.02099028      -0.64587703       1.97178478        1 
H      -3.00233841      -1.55399419       0.81350409        1 
