35
Lattice="0.0 0.0 0.0 0.0 0.0 0.0 0.0 0.0 0.0" Properties=species:S:1:pos:R:3:Z:I:1 pbc="F F F"
C      -0.74618002      -0.21265503      -0.61212013        6 
C       0.78684644      -0.04297408      -0.71910574        6 
C      -1.55243460       1.05911601      -0.43983233        6 
C       1.37061241       1.05130881       0.15999820        6 
O      -2.86806833       0.77030900      -0.31638817        8 
O      -1.12746307       2.18503019      -0.49046056        8 
O       2.46921092       1.57855372      -0.43408563        8 
O       0.97054642       1.39589735       1.24005600        8 
C       3.13758231       2.61557622       0.30549481        6 
C      -3.75619803       1.89810911      -0.20897996        6 
C      -0.89131647      -1.45299478       0.36871504        6 
C      -0.78691397      -2.69763003      -0.54242147        6 
C       0.67805722      -2.56808143      -1.04342986        6 
C       1.23630404      -1.43145316      -0.13217011        6 
O       0.38910979      -1.50469558       1.02301949        8 
H      -1.09898351      -0.55707507      -1.59083204        1 
H       1.12861915       0.10195194      -1.74270983        1 
H       3.47565769       2.24059640       1.27321224        1 
H      -3.70063734       2.51400963      -1.10800847        1 
H      -0.91560212      -3.59727990       0.06302963        1 
H      -1.53026556      -2.71192496      -1.34255154        1 
H       1.24316525      -3.48825712      -0.88535958        1 
H       0.75292960      -2.31373533      -2.10342436        1 
H       3.98586942       2.91037571      -0.30862344        1 
H       2.46472681       3.45967516       0.46421919        1 
H      -3.49816787       2.50605131       0.65925230        1 
H      -4.75114228       1.47245632      -0.09706093        1 
C       2.69175964      -1.57358847       0.25332729        6 
H       2.86302881      -2.56250697       0.68402665        1 
H       3.33055484      -1.46006031      -0.62592824        1 
H       2.98248956      -0.82480920       0.99190128        1 
C      -1.99478282      -1.45526337       1.39992396        6 
H      -1.88947736      -2.34308611       2.02776419        1 
H      -1.93184407      -0.57048477       2.03564350        1 
H      -2.97409869      -1.46998536       0.92120042        1 
