35
Lattice="0.0 0.0 0.0 0.0 0.0 0.0 0.0 0.0 0.0" Properties=species:S:1:pos:R:3:Z:I:1 pbc="F F F"
C       0.03651878       0.62034889       0.69656386        6 
C       0.44999287      -0.87717061       0.58619236        6 
C      -1.14925706       0.99751437      -0.16717595        6 
C      -0.65196383      -1.83732230       0.17108354        6 
O      -1.75252787       2.10556650       0.31972015        8 
O      -1.52190458       0.42350855      -1.15945219        8 
O      -1.77621211      -1.55937426       0.87568546        8 
O      -0.54766394      -2.79951485      -0.54429678        8 
C      -2.91865525      -2.38350848       0.58610049        6 
C      -2.87198103       2.59485404      -0.44164047        6 
C       1.33352745       1.30627316       0.12502732        6 
C       2.49354163       1.03666120       1.12717239        6 
C       2.88712253      -0.42205821       0.77508406        6 
C       1.78222160      -0.80403351      -0.24403241        6 
O       1.64121275       0.43441168      -0.96921340        8 
H      -0.16456897       0.93451020       1.71930859        1 
H       0.69044004      -1.22895289       1.59551750        1 
H      -2.69705760      -3.43299881       0.78536264        1 
H      -3.65591903       1.83756610      -0.49271692        1 
H       3.31578645       1.73014719       0.94395022        1 
H       2.17492905       1.16560441       2.16391679        1 
H       3.85835003      -0.45646188       0.27832083        1 
H       2.91970746      -1.09292563       1.63574314        1 
H      -3.70845518      -2.02722843       1.24427988        1 
H      -3.20831004      -2.26621945      -0.45928987        1 
H      -2.56107449       2.85640889      -1.45440651        1 
H      -3.22299596       3.47569141       0.09133084        1 
C       2.13652612      -1.92604182      -1.19274114        6 
H       3.09812300      -1.70132829      -1.66101019        1 
H       2.21680306      -2.87391760      -0.65752655        1 
H       1.37855076      -2.04186094      -1.96470236        1 
C       1.20782450       2.73703551      -0.35066175        6 
H       2.17216279       3.08260145      -0.72942963        1 
H       0.47571839       2.82359088      -1.15545862        1 
H       0.89824141       3.38836604       0.46955086        1 
