35
Lattice="0.0 0.0 0.0 0.0 0.0 0.0 0.0 0.0 0.0" Properties=species:S:1:pos:R:3:Z:I:1 pbc="F F F"
C      -0.84690602       0.21444700      -0.89363023        6 
C       0.46607276      -0.59921344      -0.68627572        6 
C      -0.84959988       1.66519009      -0.43226029        6 
C       1.73154316       0.22235763      -0.50798963        6 
O      -0.45493208       1.81161088       0.84300379        8 
O      -1.24540471       2.57439496      -1.12215654        8 
O       2.78391434      -0.56727767      -0.20846874        8 
O       1.84028646       1.40517508      -0.71720437        8 
C       4.06247231       0.08928780      -0.11696551        6 
C      -0.35717950       3.16483719       1.31590459        6 
C      -1.85574356      -0.65772086      -0.07261363        6 
C      -2.01526000      -2.02564645      -0.79928498        6 
C      -0.72564024      -2.77229264      -0.36801775        6 
C       0.02581829      -1.66069355       0.40791886        6 
O      -1.06273148      -1.00317050       1.07357572        8 
H      -1.12708766       0.25446514      -1.94534096        1 
H       0.68004526      -1.15072679      -1.60771565        1 
H       4.04308636       0.85667134       0.65823660        1 
H      -1.31998744       3.67285664       1.23968613        1 
H      -2.91067090      -2.53339882      -0.43713488        1 
H      -2.11491922      -1.90752632      -1.88040045        1 
H      -0.95698071      -3.59296049       0.31362161        1 
H      -0.14570837      -3.17422824      -1.20091585        1 
H       4.77187221      -0.69512471       0.13721060        1 
H       4.32256952       0.55017779      -1.07106041        1 
H       0.38674963       3.70810655       0.73078821        1 
H      -0.04651708       3.08656583       2.35557457        1 
C       1.02617023      -2.14389157       1.43303942        6 
H       0.51578622      -2.81115329       2.13156278        1 
H       1.84439048      -2.68589761       0.95803532        1 
H       1.44758538      -1.30997119       1.99567531        1 
C      -3.14958790       0.00935362       0.33813992        6 
H      -3.75956440      -0.68782335       0.91656305        1 
H      -2.95944573       0.89058404       0.95200667        1 
H      -3.71497567       0.31664119      -0.54528204        1 
