35
Lattice="0.0 0.0 0.0 0.0 0.0 0.0 0.0 0.0 0.0" Properties=species:S:1:pos:R:3:Z:I:1 pbc="F F F"
C      -0.75282158      -0.19715288      -0.57283650        6 
C       0.76211422       0.03670147      -0.75396854        6 
C      -1.65390256       1.01361484      -0.43569903        6 
C       1.36346325       1.10996957       0.14119776        6 
O      -2.94982831       0.60658809      -0.42732987        8 
O      -1.33254471       2.17164590      -0.39382185        8 
O       2.55120131       1.51812437      -0.37614322        8 
O       0.88769313       1.57102819       1.14267436        8 
C       3.23815572       2.53568336       0.37289285        6 
C      -3.93660509       1.64795972      -0.31921399        6 
C      -0.80793249      -1.40441435       0.45735371        6 
C      -0.75395847      -2.67181844      -0.42240938        6 
C       0.65540890      -2.51194026      -1.05881977        6 
C       1.27399529      -1.35738206      -0.20779449        6 
O       0.51922949      -1.42204754       1.01231872        8 
H      -1.10823354      -0.60854015      -1.52382978        1 
H       1.05357058       0.21706422      -1.78749094        1 
H       3.49366231       2.17198852       1.37002736        1 
H      -3.88480338       2.31515017      -1.18125808        1 
H      -0.80067370      -3.55757376       0.21468498        1 
H      -1.56497105      -2.72553675      -1.15173557        1 
H       1.25366622      -3.41818085      -0.95227231        1 
H       0.62275237      -2.26181194      -2.12202604        1 
H       4.13928507       2.75740881      -0.19509354        1 
H       2.61277003       3.42453565       0.46748635        1 
H      -3.78184331       2.22776767       0.59189050        1 
H      -4.89635368       1.13620182      -0.28986963        1 
C       2.75390181      -1.50483099       0.06868237        6 
H       2.94786991      -2.49832251       0.47909027        1 
H       3.32752051      -1.38924891      -0.85388562        1 
H       3.10645310      -0.76297054       0.78555641        1 
C      -1.83313867      -1.36757861       1.56425252        6 
H      -1.67394428      -2.22101761       2.22727822        1 
H      -1.73366700      -0.45062901       2.14882189        1 
H      -2.84326290      -1.41541608       1.15696488        1 
