35
Lattice="0.0 0.0 0.0 0.0 0.0 0.0 0.0 0.0 0.0" Properties=species:S:1:pos:R:3:Z:I:1 pbc="F F F"
C      -0.78362334       0.18624922      -0.93318361        6 
C       0.55079557      -0.54965564      -0.60580779        6 
C      -0.94182801       1.63425714      -0.48978378        6 
C       1.78399749       0.27206807      -0.28934256        6 
O      -0.82085993       1.80990500       0.82824280        8 
O      -1.25459167       2.51551564      -1.25999329        8 
O       2.87343947      -0.36627885      -0.79016230        8 
O       1.86419015       1.29952875       0.33395190        8 
C       4.14533512       0.25053513      -0.52053515        6 
C      -0.90891079       3.16398761       1.29931935        6 
C      -1.79047775      -0.76289464      -0.18961730        6 
C      -1.73837943      -2.16123883      -0.88172759        6 
C      -0.47143527      -2.79466034      -0.24511151        6 
C       0.10308838      -1.57940787       0.51808596        6 
O      -1.09453725      -0.99632706       1.04369832        8 
H      -0.96534218       0.19631725      -2.00694838        1 
H       0.83314211      -1.12819094      -1.48488988        1 
H       4.31096261       0.33226139       0.55484874        1 
H      -1.87520765       3.60025740       1.04082091        1 
H      -2.63726824      -2.73278718      -0.64519460        1 
H      -1.67623187      -2.07508822      -1.96877772        1 
H      -0.73698195      -3.57531039       0.47109847        1 
H       0.22680308      -3.21675525      -0.97033808        1 
H       4.88619009      -0.40391902      -0.97463381        1 
H       4.18828940       1.24560535      -0.96611743        1 
H      -0.11001644       3.76390810       0.86118989        1 
H      -0.78932179       3.10035540       2.37839951        1 
C       1.09271288      -1.86702784       1.62213518        6 
H       0.64187277      -2.53618384       2.35820172        1 
H       1.98670202      -2.34798136       1.21799911        1 
H       1.38622001      -0.94466650       2.12769583        1 
C      -3.18322279      -0.22498761       0.05265979        6 
H      -3.77641056      -0.96354561       0.59638743        1 
H      -3.15630523       0.69377405       0.63905294        1 
H      -3.67645744      -0.01796545      -0.90043069        1 
