35
Lattice="0.0 0.0 0.0 0.0 0.0 0.0 0.0 0.0 0.0" Properties=species:S:1:pos:R:3:Z:I:1 pbc="F F F"
C       0.23376910       0.98857321       0.63053774        6 
C       0.38476380      -0.57242462       0.83319524        6 
C      -1.04908025       1.51791872      -0.01076239        6 
C      -0.86975014      -1.41579822       0.68184051        6 
O      -2.12629203       0.82226492       0.39356592        8 
O      -1.13565433       2.50184733      -0.70272609        8 
O      -1.13221877      -1.75178186      -0.59685962        8 
O      -1.58887536      -1.70776461       1.60562787        8 
C      -2.35003521      -2.48188872      -0.81953398        6 
C      -3.40547298       1.27131607      -0.08605448        6 
C       1.55217076       1.29264347      -0.16693733        6 
C       2.73938176       1.05334175       0.81675895        6 
C       2.87448797      -0.48709740       0.80004168        6 
C       1.64561810      -0.89232041      -0.05108086        6 
O       1.62161666       0.14932850      -1.04000718        8 
H       0.25471223       1.47992362       1.60769952        1 
H       0.64288460      -0.73698001       1.88006188        1 
H      -3.20729803      -1.90622980      -0.46734958        1 
H      -3.45425278       1.18306231      -1.17276084        1 
H       3.63986836       1.53993054       0.43950885        1 
H       2.53475566       1.46173908       1.80890345        1 
H       3.78427937      -0.79601155       0.28191980        1 
H       2.87578689      -0.94520186       1.79093746        1 
H      -2.40446330      -2.63473526      -1.89533168        1 
H      -2.32515874      -3.43933778      -0.29668968        1 
H      -3.57794437       2.31002655       0.19822345        1 
H      -4.13356781       0.61685270       0.38805693        1 
C       1.75390013      -2.25680223      -0.69828432        6 
H       2.72373715      -2.34952283      -1.19208551        1 
H       1.67946523      -3.04323670       0.05854828        1 
H       0.96573328      -2.40591314      -1.43239078        1 
C       1.68238813       2.57273337      -0.96663110        6 
H       2.68369382       2.60780121      -1.40296900        1 
H       0.94225859       2.63164808      -1.75937517        1 
H       1.55361805       3.44372864      -0.31989639        1 
