35
Lattice="0.0 0.0 0.0 0.0 0.0 0.0 0.0 0.0 0.0" Properties=species:S:1:pos:R:3:Z:I:1 pbc="F F F"
C      -0.83126745      -0.08861145      -0.68475954        6 
C       0.71533757      -0.19941784      -0.60161331        6 
C      -1.47300971       1.00859064       0.15659009        6 
C       1.50362129       1.04621599      -0.25352851        6 
O      -2.20891399       1.82236138      -0.64266401        8 
O      -1.39452697       1.14688004       1.34710792        8 
O       2.79938574       0.86382649      -0.61389057        8 
O       1.10444636       2.06201386       0.25395809        8 
C       3.69530229       1.94769493      -0.30733785        6 
C      -2.85616467       2.92183752       0.02231694        6 
C      -1.22242837      -1.49629500      -0.10823717        6 
C      -0.67113326      -2.59563624      -1.06947382        6 
C       0.81856314      -2.68895445      -0.64048327        6 
C       0.91690254      -1.48025132       0.31690545        6 
O      -0.33143220      -1.58306122       1.01330477        8 
H      -1.16436273       0.03501093      -1.71427060        1 
H       1.08443246      -0.46149303      -1.59524917        1 
H       3.72704900       2.12316436       0.76923021        1 
H      -2.11582910       3.54582145       0.52475572        1 
H      -1.19913666      -3.53633833      -0.90487266        1 
H      -0.80181081      -2.32217909      -2.11908488        1 
H       1.01216982      -3.60749122      -0.08211971        1 
H       1.52353157      -2.63885018      -1.47290103        1 
H       4.66966356       1.63081638      -0.67286005        1 
H       3.37466805       2.86154302      -0.80958793        1 
H      -3.57555283       2.55560854       0.75700120        1 
H      -3.36267151       3.47924780      -0.76300047        1 
C       2.06716233      -1.46935611       1.29562208        6 
H       2.04170725      -2.38052801       1.89708308        1 
H       3.02098823      -1.42026826       0.76759225        1 
H       1.99186705      -0.61119313       1.96715127        1 
C      -2.66241665      -1.68463038       0.31524973        6 
H      -2.79847555      -2.68652265       0.72820722        1 
H      -2.94894342      -0.95774470       1.07576924        1 
H      -3.32535570      -1.57592489      -0.54777299        1 
