35
Lattice="0.0 0.0 0.0 0.0 0.0 0.0 0.0 0.0 0.0" Properties=species:S:1:pos:R:3:Z:I:1 pbc="F F F"
C      -0.22503091       0.86263413       0.61559202        6 
C       0.58435925      -0.47428139       0.78488101        6 
C      -1.54593279       0.68624402      -0.10654186        6 
C      -0.28018947      -1.69707828       0.49934110        6 
O      -2.56431958       1.16471458       0.63668250        8 
O      -1.68550702       0.23872209      -1.21857824        8 
O       0.29559384      -2.63770952      -0.25852098        8 
O      -1.38535616      -1.81744781       0.97616519        8 
C      -0.50767574      -3.80144995      -0.54182295        6 
C      -3.87821448       1.00884865       0.06986823        6 
C       0.78986818       1.72890634      -0.20636977        6 
C       1.92479270       2.14248374       0.76643937        6 
C       2.71726066       0.81806909       0.90270352        6 
C       1.90113295      -0.14559072      -0.00814361        6 
O       1.43258287       0.74720245      -1.03346660        8 
H      -0.43538456       1.31915593       1.58070888        1 
H       0.82708277      -0.59789985       1.84472360        1 
H      -1.41796557      -3.50855757      -1.06540922        1 
H      -4.09016197      -0.04881354      -0.09282278        1 
H       2.53156418       2.92535280       0.30791396        1 
H       1.54040816       2.52621721       1.71364411        1 
H       3.72829063       0.92078732       0.50519465        1 
H       2.79803520       0.45725051       1.93046769        1 
H       0.11471408      -4.43130362      -1.17354825        1 
H      -0.76969470      -4.31852668       0.38218351        1 
H      -3.95432815       1.54358050      -0.87829643        1 
H      -4.56247955       1.42875941       0.80389738        1 
C       2.72576310      -1.25963202      -0.61628489        6 
H       3.62870202      -0.83140446      -1.05817502        1 
H       3.02293167      -1.97943200       0.15017912        1 
H       2.16910554      -1.78930771      -1.38511529        1 
C       0.20830482       2.84757687      -1.04295930        6 
H       1.01076101       3.37911947      -1.55864186        1 
H      -0.48254183       2.45527817      -1.78940033        1 
H      -0.32403727       3.55960975      -0.40620964        1 
