35
Lattice="0.0 0.0 0.0 0.0 0.0 0.0 0.0 0.0 0.0" Properties=species:S:1:pos:R:3:Z:I:1 pbc="F F F"
C      -0.85561516      -0.05461258      -0.77735029        6 
C       0.66884930      -0.42770807      -0.72347686        6 
C      -1.14307968       1.44199249      -0.74433289        6 
C       1.56457056       0.61868249      -0.06407573        6 
O      -1.58630039       1.90004548       0.43469231        8 
O      -0.98597043       2.13727259      -1.71971087        8 
O       2.81296027       0.13905615       0.11409725        8 
O       1.28317241       1.77290672       0.13994959        8 
C       3.78729157       1.08016936       0.60309194        6 
C      -1.72246660       3.32910122       0.53496966        6 
C      -1.49472901      -1.07462537       0.23362001        6 
C      -1.68385894      -2.38273854      -0.57354584        6 
C      -0.21463076      -2.78973922      -0.83615303        6 
C       0.57081604      -1.78715902       0.06863747        6 
O      -0.38669292      -1.43491024       1.08233265        8 
H      -1.20142137      -0.31894110      -1.77894770        1 
H       1.08003749      -0.57932943      -1.72355084        1 
H       3.49389836       1.45806790       1.58342127        1 
H      -2.43934968       3.69992619      -0.19915393        1 
H      -2.19029225      -3.11808812       0.05460259        1 
H      -2.27379732      -2.24240641      -1.48180888        1 
H      -0.01663992      -3.81632278      -0.52576519        1 
H       0.07712294      -2.69979775      -1.88497563        1 
H       4.71849291       0.52192907       0.66997806        1 
H       3.88681336       1.91704691      -0.08955568        1 
H      -0.75281926       3.80019017       0.37033311        1 
H      -2.07646513       3.51521294       1.54673612        1 
C       1.79868846      -2.39547139       0.71464314        6 
H       1.51270346      -3.34345247       1.17608414        1 
H       2.57488227      -2.58614028      -0.02870254        1 
H       2.21275757      -1.74634842       1.48277555        1 
C      -2.69318727      -0.66948156       1.06219492        6 
H      -3.03531973      -1.53043989       1.64148754        1 
H      -2.44826993       0.14445616       1.73988851        1 
H      -3.51119602      -0.34216602       0.41496628        1 
