35
Lattice="0.0 0.0 0.0 0.0 0.0 0.0 0.0 0.0 0.0" Properties=species:S:1:pos:R:3:Z:I:1 pbc="F F F"
C       0.42130560       0.85906750       0.57934115        6 
C       0.00740920      -0.62441078       0.72010030        6 
C      -0.62715394       1.93266876       0.35695770        6 
C      -1.11227899      -1.07487271      -0.19994851        6 
O      -1.87941685       1.48685580       0.56202449        8 
O      -0.36055814       3.10276247       0.21145203        8 
O      -1.70721156      -2.18070907       0.31356958        8 
O      -1.44380969      -0.56964695      -1.24004129        8 
C      -2.75145283      -2.76079863      -0.48740465        6 
C      -2.93001880       2.46483750       0.46645396        6 
C       1.69243071       0.78705555      -0.36114677        6 
C       2.88174564       0.53198117       0.59247162        6 
C       2.51127534      -0.87274553       1.14536676        6 
C       1.34022816      -1.29625493       0.20295776        6 
O       1.57284784      -0.51137995      -0.97342523        8 
H       0.79092551       1.16370303       1.56517719        1 
H      -0.23182808      -0.90968728       1.74337582        1 
H      -2.36773089      -3.05064577      -1.46723592        1 
H      -2.95309877       2.89500701      -0.53564178        1 
H       3.80679101       0.49782335       0.01366923        1 
H       2.98391389       1.29830280       1.36360323        1 
H       3.34116493      -1.57548964       1.05917903        1 
H       2.20097946      -0.85541493       2.19295876        1 
H      -3.08971400      -3.63518047       0.06451150        1 
H      -3.56914152      -2.05062824      -0.62116707        1 
H      -2.78251552       3.26037952       1.19841733        1 
H      -3.84980813       1.92018118       0.66791997        1 
C       1.28976870      -2.76939409      -0.13836022        6 
H       2.26811284      -3.09444031      -0.49879507        1 
H       1.02473274      -3.35869577       0.74233702        1 
H       0.55479367      -2.96958249      -0.91921452        1 
C       1.86250324       1.84998021      -1.41697265        6 
H       2.75023251       1.62792592      -2.01436747        1 
H       0.99425193       1.87430874      -2.07752142        1 
H       1.97093494       2.83398766      -0.96080023        1 
