35
Lattice="0.0 0.0 0.0 0.0 0.0 0.0 0.0 0.0 0.0" Properties=species:S:1:pos:R:3:Z:I:1 pbc="F F F"
C      -0.47966930       0.43235765      -0.68767502        6 
C       0.35680885      -0.89297083      -0.53258821        6 
C       0.13080214       1.66007534      -0.01462135        6 
C       1.77101313      -0.72881846       0.00737551        6 
O      -0.75769557       2.66816533       0.07675564        8 
O       1.29335727       1.79737069       0.27629631        8 
O       2.59181112      -0.38184437      -1.01121574        8 
O       2.15885880      -0.95938640       1.12359880        8 
C       3.93798011      -0.04612737      -0.63594081        6 
C      -0.25425915       3.91160932       0.60148545        6 
C      -1.87039647      -0.05758729      -0.13170737        6 
C      -2.42183820      -1.09863499      -1.15766015        6 
C      -1.62846324      -2.37333586      -0.78384520        6 
C      -0.62955352      -1.81874839       0.26266538        6 
O      -1.45484503      -0.87605469       0.97224909        8 
H      -0.56831941       0.71423641      -1.74001369        1 
H       0.50346036      -1.30783564      -1.53128928        1 
H       4.42611246      -0.89255750      -0.15032291        1 
H       0.53225477       4.30625346      -0.04340722        1 
H      -3.49458955      -1.23573365      -1.01449876        1 
H      -2.26569378      -0.77548278      -2.18921979        1 
H      -2.27170429      -3.11440449      -0.30547724        1 
H      -1.13057826      -2.85040229      -1.63069723        1 
H       4.44488634       0.20699610      -1.56493181        1 
H       3.92680622       0.80848076       0.04217570        1 
H       0.14303919       3.76711826       1.60683005        1 
H      -1.10994435       4.58297400       0.61921581        1 
C      -0.06545825      -2.85775214       1.20558305        6 
H      -0.88984897      -3.41910600       1.65144454        1 
H       0.57203975      -3.55786748       0.65853425        1 
H       0.52923501      -2.39727771       1.99027877        1 
C      -2.91455665       0.93660290       0.33341840        6 
H      -3.80723666       0.38290614       0.63330638        1 
H      -2.56563376       1.51799956       1.18370401        1 
H      -3.18190783       1.62646354      -0.46894248        1 
