35
Lattice="0.0 0.0 0.0 0.0 0.0 0.0 0.0 0.0 0.0" Properties=species:S:1:pos:R:3:Z:I:1 pbc="F F F"
C       0.22137435       0.73029054       0.59650973        6 
C       0.34514869      -0.84336729       0.64095907        6 
C      -1.08886294       1.22133834       0.02062877        6 
C      -0.73015954      -1.52806407      -0.19222951        6 
O      -1.91050662       1.63617469       1.01142399        8 
O      -1.38437114       1.27507720      -1.14781378        8 
O      -1.90683405      -1.48112154       0.48264892        8 
O      -0.62018440      -2.02501297      -1.28072788        8 
C      -3.05713544      -1.97310150      -0.22967140        6 
C      -3.22026740       2.06691346       0.60281167        6 
C       1.53307234       1.12408613      -0.17754232        6 
C       2.66238921       1.09847492       0.88180953        6 
C       2.76100067      -0.41972255       1.17791486        6 
C       1.79796697      -1.02711385       0.11104593        6 
O       1.83718296      -0.05086711      -0.94441239        8 
H       0.26400962       1.11152543       1.61580381        1 
H       0.22804878      -1.19560045       1.66672048        1 
H      -2.92480757      -3.02294569      -0.49458574        1 
H      -3.75791439       1.24370545       0.12924386        1 
H       3.58283449       1.47409594       0.43074237        1 
H       2.43895977       1.70765295       1.76000588        1 
H       3.77314814      -0.79520369       1.02087027        1 
H       2.46416114      -0.68362265       2.19578921        1 
H      -3.89421085      -1.85413669       0.45520543        1 
H      -3.21321658      -1.38915399      -1.13857719        1 
H      -3.15100591       2.90016979      -0.09796287        1 
H      -3.72337372       2.37443279       1.51692742        1 
C       2.20428300      -2.39890608      -0.38512694        6 
H       3.24771325      -2.37465853      -0.70762900        1 
H       2.11425377      -3.13099022       0.42334150        1 
H       1.58028109      -2.71477170      -1.21746438        1 
C       1.48769885       2.35075362      -1.06012578        6 
H       2.47003063       2.51437884      -1.50859669        1 
H       0.75031939       2.23204480      -1.85260818        1 
H       1.22908112       3.23420650      -0.46882353        1 
