35
Lattice="0.0 0.0 0.0 0.0 0.0 0.0 0.0 0.0 0.0" Properties=species:S:1:pos:R:3:Z:I:1 pbc="F F F"
C       0.00975285       0.64392087      -0.74649254        6 
C      -0.38626263      -0.84532529      -0.60205205        6 
C       1.12952746       1.17103306       0.13553541        6 
C       0.62055955      -1.97467566      -0.46433990        6 
O       1.61351797       2.32066420      -0.40837772        8 
O       1.56690425       0.68944696       1.14511984        8 
O       1.88510825      -1.59341753      -0.25687639        8 
O       0.30257058      -3.12571634      -0.67131926        8 
C       2.86759816      -2.64434138      -0.20797461        6 
C       2.65046151       2.97817394       0.33855136        6 
C      -1.33498174       1.28271744      -0.18980740        6 
C      -2.53106496       0.81886451      -1.08184381        6 
C      -2.85338095      -0.58290032      -0.49472728        6 
C      -1.61471081      -0.80059578       0.40056077        6 
O      -1.49699262       0.50028387       1.00156077        8 
H       0.20585203       0.93173049      -1.77832139        1 
H      -0.81555334      -1.11696351      -1.57093363        1 
H       2.90988512      -3.17265366      -1.16191595        1 
H       3.52017719       2.32712203       0.44108421        1 
H      -3.37082508       1.50684349      -0.97637804        1 
H      -2.25972120       0.79072281      -2.13989235        1 
H      -3.75036236      -0.55517566       0.12750947        1 
H      -2.97610237      -1.36234834      -1.24894517        1 
H       3.81032286      -2.14392715       0.00069494        1 
H       2.62553333      -3.35286904       0.58494284        1 
H       2.29288071       3.25254499       1.33283213        1 
H       2.90320088       3.86761018      -0.23485140        1 
C      -1.69277250      -1.87470936       1.45612161        6 
H      -2.55109376      -1.68907593       2.10568710        1 
H      -1.79965199      -2.85718001       0.99396116        1 
H      -0.78762642      -1.87457797       2.06721963        1 
C      -1.33032550       2.75914266       0.14118941        6 
H      -2.30969586       3.04448231       0.53133802        1 
H      -0.58064491       2.99695416       0.89651455        1 
H      -1.12011820       3.35244263      -0.75126404        1 
