35
Lattice="0.0 0.0 0.0 0.0 0.0 0.0 0.0 0.0 0.0" Properties=species:S:1:pos:R:3:Z:I:1 pbc="F F F"
C      -0.84559801      -0.09086166      -0.79212373        6 
C       0.69102246      -0.39376530      -0.71981289        6 
C      -1.17520024       1.39664859      -0.73711415        6 
C       1.52633947       0.67169295      -0.02431848        6 
O      -1.77588979       1.80480796       0.38704383        8 
O      -0.93622640       2.12349485      -1.67340076        8 
O       2.83644731       0.34620387      -0.08159585        8 
O       1.13524265       1.71678779       0.43071905        8 
C       3.75041122       1.30305903       0.48553274        6 
C      -1.99084144       3.22313136       0.49895807        6 
C      -1.44788859      -1.15158095       0.19982640        6 
C      -1.53341576      -2.47030155      -0.61039648        6 
C      -0.03651892      -2.80914372      -0.80737017        6 
C       0.65844020      -1.74443844       0.09287172        6 
O      -0.34196910      -1.44082768       1.07919809        8 
H      -1.17047909      -0.35061543      -1.80241618        1 
H       1.12870604      -0.54035788      -1.70772005        1 
H       3.54035625       1.45005607       1.54610909        1 
H      -2.60205713       3.58616000      -0.32836643        1 
H      -2.02944829      -3.22922800      -0.00265631        1 
H      -2.09029582      -2.36175007      -1.54345867        1 
H       0.19999873      -3.81380732      -0.45410862        1 
H       0.29187066      -2.73631384      -1.84634805        1 
H       4.74034391       0.87414589       0.34700281        1 
H       3.66814665       2.25961912      -0.03250232        1 
H      -1.02992735       3.73904625       0.49815529        1 
H      -2.50317232       3.36400444       1.44832722        1 
C       1.91975264      -2.23416919       0.77115083        6 
H       1.70339240      -3.17813916       1.27651707        1 
H       2.71378550      -2.39841697       0.04063805        1 
H       2.28021467      -1.52229781       1.51291742        1 
C      -2.69106673      -0.82601646       0.99777787        6 
H      -3.00078276      -1.71274471       1.55606859        1 
H      -2.50939855      -0.00961713       1.69178147        1 
H      -3.50771340      -0.53434541       0.33230901        1 
