35
Lattice="0.0 0.0 0.0 0.0 0.0 0.0 0.0 0.0 0.0" Properties=species:S:1:pos:R:3:Z:I:1 pbc="F F F"
C       0.22687773       0.91229975       0.65794122        6 
C       0.35961991      -0.62963424       0.88549203        6 
C      -1.12624474       1.52808449       0.34576039        6 
C      -0.77869730      -1.51258824       0.40296213        6 
O      -2.15111702       0.68795684       0.57147725        8 
O      -1.28062497       2.68798073       0.04644620        8 
O      -0.99668359      -1.41199797      -0.92112861        8 
O      -1.39849972      -2.25551330       1.12635374        8 
C      -2.08702705      -2.18922739      -1.43923221        6 
C      -3.47692396       1.22052236       0.39975133        6 
C       1.40518105       1.19849167      -0.36214775        6 
C       2.69735393       1.26527187       0.48930434        6 
C       2.84682616      -0.21288792       0.93569506        6 
C       1.70615554      -0.90920185       0.13550173        6 
O       1.57188837      -0.06963281      -1.01934124        8 
H       0.47927018       1.40991008       1.59943642        1 
H       0.44832208      -0.85434717       1.94755748        1 
H      -3.02906835      -1.86006581      -0.99611658        1 
H      -3.63141962       1.52501983      -0.63649728        1 
H       3.53014428       1.57165637      -0.14661325        1 
H       2.62679676       1.97298558       1.31779434        1 
H       3.81420474      -0.62463514       0.64319572        1 
H       2.73675495      -0.35539177       2.01289781        1 
H      -2.08617001      -2.01113986      -2.51249306        1 
H      -1.94401154      -3.24942998      -1.22460439        1 
H      -3.63072399       2.07952028       1.05407999        1 
H      -4.14815652       0.40755076       0.66733583        1 
C       1.98348304      -2.34477466      -0.25490586        6 
H       2.93827748      -2.40708763      -0.78125943        1 
H       2.03804353      -2.97494801       0.63667530        1 
H       1.20387220      -2.73296853      -0.91091175        1 
C       1.23791087       2.29374955      -1.38914291        6 
H       2.12984490       2.32599412      -2.01948820        1 
H       0.37002998       2.10997901      -2.02339994        1 
H       1.10363052       3.26243472      -0.90760561        1 
