35
Lattice="0.0 0.0 0.0 0.0 0.0 0.0 0.0 0.0 0.0" Properties=species:S:1:pos:R:3:Z:I:1 pbc="F F F"
C       0.23444229       0.84985833       0.67024529        6 
C       0.23242918      -0.71569274       0.53933365        6 
C      -0.73268791       1.56388580      -0.28691662        6 
C      -1.08171750      -1.42447578       0.27269065        6 
O      -1.98055326       1.05551697      -0.19067513        8 
O      -0.47150779       2.47076770      -1.03487902        8 
O      -1.91668610      -1.21039621       1.31568179        8 
O      -1.31861078      -2.22096510      -0.60139483        8 
C      -3.20878710      -1.82887935       1.22657494        6 
C      -2.96846998       1.63019710      -1.06640285        6 
C       1.72718064       1.11363650       0.29133358        6 
C       2.64604207       0.33033621       1.28994236        6 
C       2.66023906      -1.09713864       0.68583055        6 
C       1.51413210      -0.97589552      -0.34302150        6 
O       1.80452231       0.31916950      -0.90928771        8 
H      -0.02282735       1.15669710       1.68679714        1 
H       0.45491402      -1.08718796       1.54423460        1 
H      -3.11610573      -2.91481523       1.17017051        1 
H      -2.67180889       1.50506874      -2.10839195        1 
H       3.64167626       0.77398551       1.30697467        1 
H       2.25574868       0.36460406       2.31046981        1 
H       3.59740235      -1.29785510       0.16268102        1 
H       2.49461158      -1.89122894       1.41727508        1 
H      -3.73484719      -1.53618188       2.13279815        1 
H      -3.74238580      -1.46997161       0.34435947        1 
H      -3.09651523       2.69239742      -0.85331886        1 
H      -3.88698999       1.08460276      -0.86104693        1 
C       1.47645794      -2.02200787      -1.43206140        6 
H       2.44664679      -2.04040640      -1.93443363        1 
H       1.27491793      -3.00984068      -1.01452447        1 
H       0.69795502      -1.80327876      -2.16087097        1 
C       2.19861495       2.53554936       0.06083761        6 
H       3.26361099       2.52097044      -0.18299932        1 
H       1.65168713       3.01939973      -0.74175921        1 
H       2.06959033       3.12087575       0.97662743        1 
