35
Lattice="0.0 0.0 0.0 0.0 0.0 0.0 0.0 0.0 0.0" Properties=species:S:1:pos:R:3:Z:I:1 pbc="F F F"
C      -0.36911143       0.60930259      -0.89838418        6 
C      -0.13874423      -0.89791330      -0.61213917        6 
C       0.59236130       1.61520104      -0.28864006        6 
C       1.26110101      -1.44904649      -0.41664942        6 
O       0.96945817       1.30248860       0.96121155        8 
O       0.89994417       2.64714303      -0.83975125        8 
O       2.23094313      -0.54482674      -0.64388410        8 
O       1.48682046      -2.62358182      -0.24023700        8 
C       3.58257256      -1.03993968      -0.61905070        6 
C       1.85475225       2.23205357       1.60415309        6 
C      -1.78665816       0.77495373      -0.23068585        6 
C      -2.79977192      -0.13752006      -0.99076821        6 
C      -2.53180675      -1.52762058      -0.35040133        6 
C      -1.25419184      -1.22759177       0.46518025        6 
O      -1.58411129       0.06645843       1.00050058        8 
H      -0.39704701       0.82900075      -1.96471920        1 
H      -0.42796056      -1.43293446      -1.52259715        1 
H       3.71163582      -1.83246483      -1.35739228        1 
H       1.38571136       3.21343104       1.69146804        1 
H      -3.82044759       0.20227528      -0.80895266        1 
H      -2.63340495      -0.11910832      -2.07042204        1 
H      -3.33702637      -1.80912884       0.33135102        1 
H      -2.39857493      -2.33276148      -1.07538261        1 
H       4.20740326      -0.18289037      -0.85971707        1 
H       3.82499558      -1.42881994       0.37094479        1 
H       2.78201289       2.32922573       1.03612324        1 
H       2.04986392       1.81268887       2.58873255        1 
C      -0.90880652      -2.18635679       1.57765319        6 
H      -1.76122031      -2.27882189       2.25480435        1 
H      -0.65881988      -3.16862869       1.17617281        1 
H      -0.05102224      -1.82170603       2.14546854        1 
C      -2.25930773       2.18895833       0.02195905        6 
H      -3.23388333       2.16897495       0.51425912        1 
H      -1.56198960       2.73445369       0.65953236        1 
H      -2.35337778       2.73043678      -0.92229339        1 
