35
Lattice="0.0 0.0 0.0 0.0 0.0 0.0 0.0 0.0 0.0" Properties=species:S:1:pos:R:3:Z:I:1 pbc="F F F"
C      -0.07398991       0.77183129       0.79814741        6 
C       0.69989236      -0.60275907       0.79800071        6 
C      -1.55729246       0.64396938       0.45353686        6 
C      -0.14562546      -1.84685493       0.58657933        6 
O      -2.03827229       1.65518794      -0.28797523        8 
O      -2.26115652      -0.23911751       0.87967970        8 
O      -0.53013573      -2.00004101      -0.69638535        8 
O      -0.47532630      -2.58923392       1.47709690        8 
C      -1.45855779      -3.07074536      -0.94591716        6 
C      -3.45031493       1.61320160      -0.57257133        6 
C       0.87961638       1.63215490      -0.11025438        6 
C       2.18704502       1.85825217       0.71398894        6 
C       2.91894139       0.50551718       0.54721419        6 
C       1.85881959      -0.32169228      -0.22167271        6 
O       1.29051938       0.66842760      -1.09570654        8 
H      -0.08619271       1.17630535       1.81452673        1 
H       1.12504742      -0.76230838       1.78853494        1 
H      -2.36119573      -2.92399990      -0.35138132        1 
H      -4.02669551       1.62171337       0.35328336        1 
H       2.75731744       2.68024944       0.27955475        1 
H       1.97929158       2.11307474       1.75547354        1 
H       3.81224037       0.61047289      -0.07151133        1 
H       3.21309402       0.04093841       1.49017002        1 
H      -1.68079724      -3.01907975      -2.00980499        1 
H      -1.01051900      -4.03334289      -0.69407234        1 
H      -3.69509710       0.71478046      -1.14050684        1 
H      -3.65073930       2.50595713      -1.16087600        1 
C       2.41577563      -1.48980797      -1.00677121        6 
H       3.26225352      -1.15570251      -1.61094988        1 
H       2.76957113      -2.26972565      -0.32609515        1 
H       1.66029304      -1.91664929      -1.66392060        1 
C       0.38333468       2.89256872      -0.79033177        6 
H       1.23113912       3.38841415      -1.26886493        1 
H      -0.36670703       2.66875745      -1.54367021        1 
H      -0.05550952       3.57949716      -0.06308431        1 
