35
Lattice="0.0 0.0 0.0 0.0 0.0 0.0 0.0 0.0 0.0" Properties=species:S:1:pos:R:3:Z:I:1 pbc="F F F"
C       0.22723301       0.98476116       0.60132481        6 
C       0.39937191      -0.55637532       0.88362884        6 
C      -1.09948842       1.33948993      -0.05364340        6 
C      -0.79424232      -1.43836989       0.58395983        6 
O      -2.09784581       1.10165620       0.83251273        8 
O      -1.29507972       1.77135299      -1.15898106        8 
O      -1.18484268      -1.35166173      -0.70199559        8 
O      -1.33420939      -2.14734288       1.39872611        8 
C      -2.31589392      -2.15233481      -1.08525684        6 
C      -3.43643450       1.30663499       0.34830270        6 
C       1.51404192       1.28161962      -0.22976152        6 
C       2.72108741       1.16160917       0.74948172        6 
C       2.89219350      -0.37289201       0.87410694        6 
C       1.69137945      -0.88021745       0.04089626        6 
O       1.63452259       0.08332025      -1.02021118        8 
H       0.23923791       1.52372720       1.55094322        1 
H       0.59321528      -0.72100189       1.94222926        1 
H      -3.17335951      -1.93489963      -0.44683025        1 
H      -3.59994208       0.73595614      -0.56711209        1 
H       3.60232709       1.62906958       0.30772506        1 
H       2.52625678       1.65554848       1.70404460        1 
H       3.82119714      -0.70693560       0.40839500        1 
H       2.87715498      -0.73861401       1.90259078        1 
H      -2.52269758      -1.88178430      -2.11818788        1 
H      -2.07454391      -3.21396229      -1.00689567        1 
H      -3.61193069       2.36424918       0.14434270        1 
H      -4.08990545       0.95612161       1.14404508        1 
C       1.82356644      -2.28630574      -0.50193769        6 
H       2.76207845      -2.38281424      -1.05200574        1 
H       1.82775401      -3.01070614       0.31706342        1 
H       1.00206456      -2.52335621      -1.17828271        1 
C       1.55165945       2.51939143      -1.10078220        6 
H       2.53018395       2.59049355      -1.58133266        1 
H       0.77609561       2.49374875      -1.86153227        1 
H       1.40763741       3.41376354      -0.48725649        1 
