35
Lattice="0.0 0.0 0.0 0.0 0.0 0.0 0.0 0.0 0.0" Properties=species:S:1:pos:R:3:Z:I:1 pbc="F F F"
C      -0.87179132       0.09498646      -0.89231188        6 
C       0.55575426      -0.51676965      -0.70155311        6 
C      -1.02410584       1.57103333      -0.54347114        6 
C       1.68413573       0.43549273      -0.34998160        6 
O      -1.04889584       1.80763566       0.77625476        8 
O      -1.14552892       2.42939232      -1.38497685        8 
O       2.86267860      -0.22899855      -0.37361810        8 
O       1.61037474       1.62156687      -0.15104615        8 
C       4.03568814       0.55230703      -0.08121153        6 
C      -1.04992919       3.19229381       1.16168641        6 
C      -1.73540292      -0.89690242      -0.04777868        6 
C      -1.73855277      -2.26735323      -0.79083446        6 
C      -0.34643929      -2.84080915      -0.42220365        6 
C       0.26808316      -1.65984509       0.36752053        6 
O      -0.87324597      -1.15336709       1.07259844        8 
H      -1.15082648       0.04547334      -1.94465459        1 
H       0.87978969      -0.99110760      -1.62946803        1 
H       3.96783458       0.98237669       0.91935630        1 
H      -1.91974736       3.70747344       0.75081539        1 
H      -2.54304411      -2.89572965      -0.40565379        1 
H      -1.89248132      -2.15119585      -1.86564891        1 
H      -0.43576667      -3.70768403       0.23560356        1 
H       0.25752354      -3.13137910      -1.28402871        1 
H       4.86925667      -0.14381975      -0.14252137        1 
H       4.14982131       1.35569541      -0.81027903        1 
H      -0.13815824       3.67171637       0.80306936        1 
H      -1.08184283       3.18933222       2.24910649        1 
C       1.35600346      -2.02465015       1.35277778        6 
H       0.97131207      -2.77822930       2.04366476        1 
H       2.22993070      -2.42472856       0.83793878        1 
H       1.66748150      -1.15460589       1.93422599        1 
C      -3.10395496      -0.42713723       0.39534618        6 
H      -3.59797608      -1.21625954       0.96668556        1 
H      -3.03423259       0.46286291       1.01848049        1 
H      -3.72197893      -0.19934124      -0.47797094        1 
