35
Lattice="0.0 0.0 0.0 0.0 0.0 0.0 0.0 0.0 0.0" Properties=species:S:1:pos:R:3:Z:I:1 pbc="F F F"
C      -0.76999997      -0.00108483      -0.74295283        6 
C       0.75071865      -0.24513956      -0.61707964        6 
C      -1.29847244       1.11286844       0.14608149        6 
C       1.61123863       0.99754277      -0.49497306        6 
O      -2.46478304       1.58482540      -0.35810967        8 
O      -0.79713337       1.52619759       1.15771496        8 
O       2.89800250       0.67594674      -0.23866249        8 
O       1.24095330       2.12663759      -0.69516459        8 
C       3.82221873       1.77850476      -0.17889462        6 
C      -3.10264799       2.62272955       0.40681826        6 
C      -1.28931187      -1.36799628      -0.15536544        6 
C      -0.75486213      -2.53665353      -1.04097806        6 
C       0.68873611      -2.72385384      -0.49823397        6 
C       0.82578874      -1.46757218       0.39198093        6 
O      -0.47034796      -1.45680098       1.01929742        8 
H      -1.10148397       0.16459690      -1.76677431        1 
H       1.08753255      -0.63277722      -1.58616720        1 
H       3.52585184       2.48120136       0.60096904        1 
H      -2.44755472       3.49117607       0.48857793        1 
H      -1.36252748      -3.43064864      -0.89167238        1 
H      -0.78993041      -2.28943446      -2.10474993        1 
H       0.75999199      -3.61651551       0.12655434        1 
H       1.45134145      -2.78538827      -1.27762994        1 
H       4.78781263       1.33355887       0.05151243        1 
H       3.85706316       2.29919983      -1.13716412        1 
H      -3.34909998       2.26480041       1.40822299        1 
H      -4.00763796       2.87406992      -0.14231660        1 
C       1.90298849      -1.49438254       1.44939184        6 
H       1.74026709      -2.36053264       2.09519682        1 
H       2.89190861      -1.56716728       0.99686387        1 
H       1.86649386      -0.59143137       2.06054101        1 
C      -2.75595258      -1.46088538       0.20351387        6 
H      -2.96325597      -2.44280629       0.63467274        1 
H      -3.03892917      -0.70057547       0.93250703        1 
H      -3.37577918      -1.33138692      -0.68678145        1 
