35
Lattice="0.0 0.0 0.0 0.0 0.0 0.0 0.0 0.0 0.0" Properties=species:S:1:pos:R:3:Z:I:1 pbc="F F F"
C       0.10892808       0.83385462       0.62372399        6 
C       0.47709894      -0.68618550       0.73240338        6 
C      -1.16923654       1.17550770      -0.12680124        6 
C      -0.53193513      -1.78215125       0.44159655        6 
O      -2.14433931       1.50048029       0.75861459        8 
O      -1.32591169       1.21172938      -1.31918940        8 
O      -1.70452721      -1.35453916      -0.04656860        8 
O      -0.29260872      -2.94806745       0.65672277        8 
C      -2.68257375      -2.36621284      -0.35125655        6 
C      -3.42909595       1.79423906       0.18706950        6 
C       1.38440777       1.38316416      -0.09577773        6 
C       2.58517391       1.23750525       0.88804793        6 
C       2.94727414      -0.26253763       0.74246809        6 
C       1.79483700      -0.76077814      -0.15978379        6 
O       1.63343587       0.34559263      -1.05729198        8 
H       0.00548196       1.25607129       1.62330074        1 
H       0.76635766      -0.89779909       1.76336055        1 
H      -2.97424740      -2.89717386       0.55598136        1 
H      -3.79641416       0.93612076      -0.37844762        1 
H       3.40580482       1.88257496       0.57008622        1 
H       2.31666914       1.52315186       1.90761697        1 
H       3.89585374      -0.39097039       0.21724531        1 
H       3.00762898      -0.79920088       1.69124379        1 
H      -3.52852081      -1.82965004      -0.77478192        1 
H      -2.27934062      -3.07755523      -1.07265278        1 
H      -3.36793628       2.65826355      -0.47669382        1 
H      -4.08346909       2.00518263       1.03038022        1 
C       2.05903352      -2.02969497      -0.93535005        6 
H       2.98049552      -1.91186713      -1.50985356        1 
H       2.16060226      -2.88173873      -0.26253965        1 
H       1.24362974      -2.23871432      -1.62997868        1 
C       1.28283417       2.73889559      -0.76117113        6 
H       2.24326593       2.99677439      -1.21281167        1 
H       0.51937644       2.74229720      -1.53720442        1 
H       1.03994062       3.50370724      -0.01730778        1 
