35
Lattice="0.0 0.0 0.0 0.0 0.0 0.0 0.0 0.0 0.0" Properties=species:S:1:pos:R:3:Z:I:1 pbc="F F F"
C      -0.00183678       0.64610091       0.67089353        6 
C       0.48023692      -0.84344350       0.63736095        6 
C      -1.38392119       0.94899890       0.13068858        6 
C      -0.45116865      -1.80411677      -0.09297881        6 
O      -1.76117220       2.18620242       0.53241142        8 
O      -2.09359952       0.23244328      -0.52811134        8 
O      -1.36256603      -2.29009764       0.78250176        8 
O      -0.40149336      -2.12888808      -1.24962273        8 
C      -2.40545880      -3.09603028       0.20562875        6 
C      -3.04501706       2.63753264       0.06352870        6 
C       1.16335008       1.36997492      -0.13196201        6 
C       2.34154060       1.52182157       0.85982938        6 
C       2.80228690       0.04899710       1.00676717        6 
C       1.88718842      -0.68733810      -0.01912092        6 
O       1.63415232       0.33476444      -0.99989704        8 
H      -0.00579215       1.01895034       1.69551540        1 
H       0.56362414      -1.21770445       1.65857778        1 
H      -1.98689848      -3.98708248      -0.26535963        1 
H      -3.83387999       1.96521781       0.40399898        1 
H       3.12070184       2.13742293       0.40561455        1 
H       2.04463747       1.99189534       1.79918047        1 
H       3.84867321      -0.07125033       0.72236653        1 
H       2.68543378      -0.34411278       2.01883159        1 
H      -3.05384642      -3.37099995       1.03502298        1 
H      -2.95248675      -2.51422981      -0.53749641        1 
H      -3.05862773       2.68320418      -1.02675951        1 
H      -3.17619369       3.62979552       0.48939925        1 
C       2.51727877      -1.91008262      -0.65156123        6 
H       3.50914830      -1.65423863      -1.03081196        1 
H       2.63049237      -2.70229643       0.09468495        1 
H       1.90493235      -2.28272296      -1.46913738        1 
C       0.81134995       2.60219051      -0.93462360        6 
H       1.69857065       2.94523380      -1.47112926        1 
H       0.03279008       2.38271746      -1.66852629        1 
H       0.45923402       3.40333330      -0.28314379        1 
