35
Lattice="0.0 0.0 0.0 0.0 0.0 0.0 0.0 0.0 0.0" Properties=species:S:1:pos:R:3:Z:I:1 pbc="F F F"
C      -0.39613178       0.68098157      -0.76518054        6 
C      -0.09729778      -0.83756680      -0.49736588        6 
C       0.46249610       1.71163047      -0.02847442        6 
C       1.33300099      -1.22145902      -0.16160859        6 
O       1.62854080       1.20919633       0.40949273        8 
O       0.13645034       2.85666163       0.16755596        8 
O       2.09965034      -1.02294186      -1.26291942        8 
O       1.75221537      -1.72020704       0.85087346        8 
C       3.50230012      -1.28625196      -1.10743190        6 
C       2.46816073       2.09001147       1.17766469        6 
C      -1.88671638       0.72615113      -0.26050087        6 
C      -2.72272434      -0.25837264      -1.14339453        6 
C      -2.43867742      -1.62588583      -0.47624573        6 
C      -1.27277342      -1.25131125       0.46548982        6 
O      -1.74071095       0.01253958       0.98213626        8 
H      -0.32108660       0.91940955      -1.82898773        1 
H      -0.25536727      -1.34676789      -1.45164373        1 
H       3.67281022      -2.32907416      -0.83543503        1 
H       1.91288083       2.50139371       2.02075109        1 
H      -3.78017884       0.00337715      -1.10038060        1 
H      -2.41734099      -0.21779772      -2.19213099        1 
H      -3.28907763      -1.95863050       0.12214489        1 
H      -2.18139562      -2.41921744      -1.18163877        1 
H       3.95001321      -1.06490410      -2.07406425        1 
H       3.92382839      -0.64060983      -0.33484207        1 
H       2.83452328       2.90499300       0.55158370        1 
H       3.29005473       1.46858495       1.52586455        1 
C      -1.01257228      -2.21931911       1.59649852        6 
H      -1.94993334      -2.40345954       2.12771258        1 
H      -0.63727644      -3.16931003       1.21015114        1 
H      -0.27395452      -1.82801837       2.29281209        1 
C      -2.57636371       2.05671180      -0.04214005        6 
H      -3.61019001       1.86860522       0.25782190        1 
H      -2.08548336       2.65100103       0.72292840        1 
H      -2.58185525       2.63626886      -0.96816420        1 
