35
Lattice="0.0 0.0 0.0 0.0 0.0 0.0 0.0 0.0 0.0" Properties=species:S:1:pos:R:3:Z:I:1 pbc="F F F"
C      -0.28933101       0.53945854      -0.75461402        6 
C       0.22909036      -0.88989497      -0.46842332        6 
C       0.27798947       1.56175989       0.24083418        6 
C       1.70676685      -1.17632578      -0.28063207        6 
O      -0.38425855       2.73737699       0.16662016        8 
O       1.27933460       1.43270475       0.89762814        8 
O       2.47644613      -0.22856450      -0.84590682        8 
O       2.14053633      -2.25021840       0.06781561        8 
C       3.88890115      -0.49329397      -0.86950388        6 
C       0.12175470       3.79816290       0.99728391        6 
C      -1.81394665       0.26912632      -0.41434133        6 
C      -2.34658298      -0.93440405      -1.26534891        6 
C      -1.87915188      -2.16426407      -0.44180173        6 
C      -0.86438652      -1.48557772       0.50019979        6 
O      -1.62665110      -0.31939539       0.89133296        8 
H      -0.10351433       0.88536961      -1.77186188        1 
H       0.10645282      -1.42815294      -1.41747880        1 
H       4.09932506      -1.41118684      -1.42132504        1 
H       1.14959707       4.04021861       0.72291285        1 
H      -3.43266277      -0.88560983      -1.34400307        1 
H      -1.94736542      -0.91964268      -2.28275605        1 
H      -2.69838315      -2.58319096       0.14633091        1 
H      -1.43765222      -2.96109083      -1.04386303        1 
H       4.33573549       0.36635393      -1.36411717        1 
H       4.27096634      -0.58860248       0.14779576        1 
H       0.09068808       3.50711293       2.04822061        1 
H      -0.53481305       4.64628448       0.81463356        1 
C      -0.41364030      -2.25339756       1.71722753        6 
H      -1.28790838      -2.52557343       2.31389691        1 
H       0.12068952      -3.15656774       1.42357194        1 
H       0.25570522      -1.64705933       2.32975424        1 
C      -2.80550546       1.41383496      -0.35340364        6 
H      -3.79975838       1.00917665      -0.15048577        1 
H      -2.55566351       2.13074859       0.42232559        1 
H      -2.83486842       1.94042357      -1.31063983        1 
