35
Lattice="0.0 0.0 0.0 0.0 0.0 0.0 0.0 0.0 0.0" Properties=species:S:1:pos:R:3:Z:I:1 pbc="F F F"
C      -0.87578963       0.20180719      -0.83315838        6 
C       0.47218777      -0.60210773      -0.72774830        6 
C      -0.78634131       1.70134376      -0.57958852        6 
C       1.70521331       0.21200357      -0.34609487        6 
O      -0.69346952       2.00778170       0.72672444        8 
O      -0.78157547       2.52048825      -1.46512073        8 
O       2.73144779      -0.58626173       0.00998234        8 
O       1.83327924       1.40259670      -0.48588060        8 
C       3.98693967       0.07193946       0.26399420        6 
C      -0.42981554       3.39010593       1.02453006        6 
C      -1.82405578      -0.63207275       0.08968466        6 
C      -2.19264903      -1.92128616      -0.69270235        6 
C      -0.87123819      -2.72446738      -0.61803370        6 
C       0.03028855      -1.78342813       0.23251153        6 
O      -0.92252459      -1.13242361       1.08942619        8 
H      -1.23259912       0.14907396      -1.86225170        1 
H       0.73676700      -1.01314010      -1.70579033        1 
H       3.88916412       0.76879216       1.09760688        1 
H      -1.23832890       4.02496862       0.65875175        1 
H      -3.00206672      -2.44231752      -0.17778694        1 
H      -2.52413604      -1.71108567      -1.71148236        1 
H      -1.01185961      -3.67130367      -0.09372111        1 
H      -0.43498657      -2.94559705      -1.59406447        1 
H       4.68422243      -0.72554380       0.51118018        1 
H       4.31850017       0.61545462      -0.62174466        1 
H       0.50921108       3.69140964       0.55887401        1 
H      -0.35995985       3.44398604       2.10896855        1 
C       1.05068320      -2.51257878       1.08117589        6 
H       0.53114534      -3.28124006       1.65812504        1 
H       1.81004693      -2.98880090       0.45983146        1 
H       1.55012568      -1.83644137       1.77264779        1 
C      -3.00613016       0.07890837       0.71174453        6 
H      -3.60051548      -0.63211546       1.28956304        1 
H      -2.68057974       0.88338364       1.36804278        1 
H      -3.64303063       0.50016431      -0.07160197        1 
