35
Lattice="0.0 0.0 0.0 0.0 0.0 0.0 0.0 0.0 0.0" Properties=species:S:1:pos:R:3:Z:I:1 pbc="F F F"
C      -0.71048677      -0.36093984      -0.62867078        6 
C       0.76246693       0.08669912      -0.79638474        6 
C      -1.72859915       0.76555190      -0.66701528        6 
C       1.09774203       1.27309341       0.11051243        6 
O      -2.85823306       0.47841226       0.00788429        8 
O      -1.58233191       1.76868830      -1.31990751        8 
O       2.40996343       1.58585525       0.02630285        8 
O       0.30901366       1.95156183       0.71666623        8 
C       2.82471451       2.75477153       0.75707874        6 
C      -3.89188782       1.47998433      -0.04165967        6 
C      -0.60922564      -1.50630471       0.45887448        6 
C      -0.38499581      -2.79136941      -0.36827711        6 
C       0.97290712      -2.45854630      -1.04104402        6 
C       1.45531422      -1.21271858      -0.22652999        6 
O       0.71557309      -1.32526367       1.00708278        8 
H      -0.97701447      -0.86335070      -1.56761590        1 
H       1.04104275       0.32892929      -1.82165586        1 
H       2.62493282       2.63042905       1.82239994        1 
H      -4.23662071       1.62335915      -1.06697251        1 
H      -0.29466312      -3.64636052       0.30508472        1 
H      -1.19387534      -2.98975626      -1.07501158        1 
H       1.68654808      -3.27635154      -0.93999071        1 
H       0.88197005      -2.23374420      -2.10664784        1 
H       3.89346248       2.84513804       0.57460499        1 
H       2.29530274       3.63669542       0.39342274        1 
H      -3.51820689       2.42684071       0.34934783        1 
H      -4.69562922       1.09528629       0.58272581        1 
C       2.94613996      -1.21922151       0.03986545        6 
H       3.23647951      -2.20583033       0.40848773        1 
H       3.49678002      -1.01627265      -0.88182999        1 
H       3.23135097      -0.47278393       0.77650152        1 
C      -1.61962272      -1.58437317       1.57729244        6 
H      -1.33152793      -2.38985948       2.25761673        1 
H      -1.65955044      -0.64828279       2.13424120        1 
H      -2.61551359      -1.78977040       1.18465169        1 
