35
Lattice="0.0 0.0 0.0 0.0 0.0 0.0 0.0 0.0 0.0" Properties=species:S:1:pos:R:3:Z:I:1 pbc="F F F"
C      -0.15176858       0.75883144      -0.82052362        6 
C      -0.55350165      -0.76890975      -0.77829995        6 
C       1.32340767       1.00049624      -0.49875827        6 
C       0.59820766      -1.73972590      -0.59441610        6 
O       1.55411717       1.94361695       0.42667371        8 
O       2.21258653       0.41038487      -1.06421813        8 
O       1.07565723      -1.74191608       0.66742833        8 
O       1.07857425      -2.38618637      -1.49082577        8 
C       2.27670150      -2.50684046       0.87676162        6 
C       2.93866997       2.20404797       0.72761593        6 
C      -1.27941060       1.36855135       0.07922613        6 
C      -2.61595509       1.20644356      -0.71704901        6 
C      -2.97442010      -0.27572087      -0.45956922        6 
C      -1.71081866      -0.76684225       0.28596358        6 
O      -1.39969714       0.37004941       1.10945577        8 
H      -0.25015626       1.11891873      -1.84782883        1 
H      -0.96083728      -1.04694206      -1.74989848        1 
H       3.07210871      -2.12763934       0.23370282        1 
H       3.46627806       2.54210731      -0.16512782        1 
H      -3.37351473       1.87852360      -0.31225319        1 
H      -2.49461335       1.44671516      -1.77562685        1 
H      -3.83741407      -0.36277628       0.20353366        1 
H      -3.18252261      -0.84702547      -1.36626267        1 
H       2.52690428      -2.37182160       1.92693497        1 
H       2.10414079      -3.56135560       0.65592590        1 
H       3.41805390       1.30183936       1.10915539        1 
H       2.92591474       2.98298883       1.48677307        1 
C      -1.90861206      -2.01244921       1.12205230        6 
H      -2.76456641      -1.87380379       1.78613414        1 
H      -2.11171371      -2.87166180       0.47623263        1 
H      -1.02660001      -2.22615242       1.72293639        1 
C      -1.12267430       2.74928179       0.68453767        6 
H      -2.05561553       3.02560583       1.18113417        1 
H      -0.31271102       2.78168596       1.40655290        1 
H      -0.91934313       3.48604808      -0.09732716        1 
