35
Lattice="0.0 0.0 0.0 0.0 0.0 0.0 0.0 0.0 0.0" Properties=species:S:1:pos:R:3:Z:I:1 pbc="F F F"
C      -0.18482910       0.82401951       0.64702508        6 
C       0.64312478      -0.49445590       0.87363453        6 
C      -1.53780067       0.61468870       0.00408947        6 
C      -0.21184908      -1.72755602       0.60583931        6 
O      -2.48691206       1.32786963       0.64607507        8 
O      -1.75840350      -0.04676275      -0.98101315        8 
O       0.13246508      -2.44347541      -0.46828818        8 
O      -1.14401494      -2.00715262       1.32562426        8 
C      -0.75807690      -3.51793861      -0.82501380        6 
C      -3.81990408       1.22085154       0.11114314        6 
C       0.78235544       1.63467542      -0.29457710        6 
C       1.92895574       2.16933549       0.59856257        6 
C       2.73292980       0.87454415       0.87429349        6 
C       1.93926501      -0.18757044       0.05411961        6 
O       1.43136776       0.59709119      -1.04156157        8 
H      -0.34467025       1.35399997       1.58392709        1 
H       0.88063867      -0.57447047       1.93638025        1 
H      -1.74295644      -3.11356597      -1.06032408        1 
H      -4.15970840       0.18520712       0.15470581        1 
H       2.52208102       2.89391942       0.03713513        1 
H       1.56239806       2.66235448       1.50102962        1 
H       3.74973205       0.94956063       0.48565282        1 
H       2.79972124       0.61711129       1.93338833        1 
H      -0.31289465      -3.97909706      -1.70389666        1 
H      -0.84000587      -4.23717721      -0.00920556        1 
H      -3.84524180       1.56591846      -0.92368816        1 
H      -4.43765692       1.85444184       0.74362746        1 
C       2.79212816      -1.33614573      -0.44211149        6 
H       3.70025665      -0.94186367      -0.90379569        1 
H       3.08345989      -1.97658495       0.39516148        1 
H       2.25587376      -1.94121266      -1.16776505        1 
C       0.13823488       2.64756150      -1.21538679        6 
H       0.90541068       3.15170731      -1.80679354        1 
H      -0.56143134       2.16140150      -1.89641932        1 
H      -0.40005630       3.39991103      -0.63287746        1 
