35
Lattice="0.0 0.0 0.0 0.0 0.0 0.0 0.0 0.0 0.0" Properties=species:S:1:pos:R:3:Z:I:1 pbc="F F F"
C      -0.75993156       0.01251526      -0.74077285        6 
C       0.76463463      -0.17468691      -0.57303310        6 
C      -1.41003502       1.07437637       0.13152255        6 
C       1.63492382       1.04853625      -0.36422360        6 
O      -2.52520229       1.54405601      -0.48942974        8 
O      -1.04938325       1.45110713       1.21237387        8 
O       2.93466528       0.69527990      -0.55313360        8 
O       1.29811562       2.17170317      -0.09941798        8 
C       3.90121112       1.74484305      -0.36917293        6 
C      -3.27859218       2.52323978       0.24615565        6 
C      -1.23298006      -1.38998790      -0.18765099        6 
C      -0.61008037      -2.52556327      -1.05968553        6 
C       0.81798098      -2.65500724      -0.45876784        6 
C       0.85902133      -1.39853226       0.43743680        6 
O      -0.45508561      -1.45091083       1.01631777        8 
H      -1.05603002       0.16799636      -1.77709302        1 
H       1.13455365      -0.55076754      -1.53079090        1 
H       3.85249875       2.13418284       0.64910446        1 
H      -2.66172756       3.39797591       0.45708554        1 
H      -1.18427345      -3.44612034      -0.94269370        1 
H      -0.60988144      -2.27020848      -2.12205357        1 
H       0.90250787      -3.54709964       0.16547026        1 
H       1.61256165      -2.67909179      -1.20742249        1 
H       4.86890705       1.28489758      -0.55800022        1 
H       3.71978137       2.55953695      -1.07196237        1 
H      -3.63638611       2.10416221       1.18868380        1 
H      -4.11640962       2.78890977      -0.39527801        1 
C       1.90639323      -1.34727070       1.52280288        6 
H       1.80080899      -2.22140344       2.16907506        1 
H       2.90818077      -1.34265706       1.09144989        1 
H       1.78008729      -0.44947781       2.13212614        1 
C      -2.70668658      -1.55494078       0.11189105        6 
H      -2.88489829      -2.54817771       0.52984293        1 
H      -3.05495498      -0.81448685       0.83343940        1 
H      -3.29487981      -1.44988116      -0.80283765        1 
