35
Lattice="0.0 0.0 0.0 0.0 0.0 0.0 0.0 0.0 0.0" Properties=species:S:1:pos:R:3:Z:I:1 pbc="F F F"
C      -0.42699956       0.46405941      -0.70775358        6 
C       0.30155921      -0.91313230      -0.50113965        6 
C       0.22045447       1.62179922       0.05363933        6 
C       1.75209331      -0.84889424      -0.04577702        6 
O      -0.61363741       2.66767945       0.19799505        8 
O       1.38377047       1.67951533       0.36921130        8 
O       2.51773850      -0.45601184      -1.09115931        8 
O       2.20550737      -1.19989103       1.01276010        8 
C       3.90353272      -0.22100917      -0.79246362        6 
C      -0.04974117       3.84822727       0.80170265        6 
C      -1.87277787       0.05904964      -0.24201105        6 
C      -2.39158413      -1.03278879      -1.23604142        6 
C      -1.72754918      -2.31876076      -0.68888216        6 
C      -0.74384995      -1.72585147       0.34672436        6 
O      -1.55907161      -0.69511746       0.94133387        8 
H      -0.41508595       0.76728051      -1.75792141        1 
H       0.37520452      -1.37760438      -1.48694576        1 
H       4.37626215      -1.12857244      -0.41400902        1 
H       0.76109320       4.23954363       0.18561386        1 
H      -3.47982692      -1.09083396      -1.19776553        1 
H      -2.11163965      -0.80754239      -2.26798610        1 
H      -2.45292476      -2.95223992      -0.17425308        1 
H      -1.22668195      -2.91918803      -1.45102215        1 
H       4.35704157       0.08279586      -1.73379501        1 
H       3.98955196       0.57390768      -0.05010293        1 
H       0.33189579       3.62112430       1.79760711        1 
H      -0.86950418       4.56117708       0.85665775        1 
C      -0.26295270      -2.69567104       1.40132421        6 
H      -1.13066725      -3.17172281       1.86452245        1 
H       0.35883302      -3.47268010       0.94963852        1 
H       0.32868065      -2.19437864       2.16332395        1 
C      -2.91567241       1.11340455       0.06908424        6 
H      -3.85775487       0.61224269       0.30323631        1 
H      -2.62933642       1.72972051       0.91690819        1 
H      -3.07431783       1.76613601      -0.79226160        1 
