35
Lattice="0.0 0.0 0.0 0.0 0.0 0.0 0.0 0.0 0.0" Properties=species:S:1:pos:R:3:Z:I:1 pbc="F F F"
C      -0.20391360       0.72262463       0.72174100        6 
C       0.77626994      -0.47414648       0.87712907        6 
C      -1.66354103       0.30369816       0.74216301        6 
C       0.34432183      -1.79702771       0.27155560        6 
O      -2.46720895       1.07950332      -0.00435391        8 
O      -2.07395802      -0.58663963       1.44825612        8 
O      -0.54736878      -1.66104657      -0.72608215        8 
O       0.84165925      -2.85455463       0.57869907        8 
C      -0.96438362      -2.87305604      -1.37682406        6 
C      -3.87327028       0.77029157       0.05499150        6 
C       0.48031711       1.57849924      -0.41924211        6 
C       1.54033529       2.44111669       0.31129638        6 
C       2.52930994       1.35006011       0.79898673        6 
C       2.00252078       0.07930767       0.06506482        6 
O       1.33281626       0.62453079      -1.08312075        8 
H      -0.14093659       1.31134950       1.64396508        1 
H       1.03737984      -0.67916533       1.91380796        1 
H      -1.47150098      -3.52693074      -0.66562605        1 
H      -4.24583158       0.88192569       1.07412925        1 
H       2.01594603       3.10950913      -0.40908356        1 
H       1.11838775       3.04839943       1.11496770        1 
H       3.55365723       1.56481619       0.49113000        1 
H       2.53103391       1.21978878       1.88350844        1 
H      -1.64691716      -2.55919913      -2.16374272        1 
H      -0.10514534      -3.39493342      -1.79999168        1 
H      -4.05119539      -0.25147997      -0.28250508        1 
H      -4.35345645       1.48421185      -0.61069237        1 
C       3.07086322      -0.90657682      -0.35105029        6 
H       3.83731825      -0.38736629      -0.93067665        1 
H       3.53797034      -1.35498798       0.52876951        1 
H       2.66085158      -1.71261806      -0.96029411        1 
C      -0.36047332       2.30987656      -1.44013152        6 
H       0.30594194       2.81826287      -2.14102504        1 
H      -0.99598936       1.61938621      -1.99211899        1 
H      -0.99935627       3.05129562      -0.95859494        1 
