35
Lattice="0.0 0.0 0.0 0.0 0.0 0.0 0.0 0.0 0.0" Properties=species:S:1:pos:R:3:Z:I:1 pbc="F F F"
C      -0.47368515       0.78326831      -0.81970884        6 
C      -0.33466325      -0.78939102      -0.87559553        6 
C       0.83643556       1.53930638      -0.71838322        6 
C       1.07711757      -1.24697658      -0.52813802        6 
O       1.43573598       1.39366668       0.48063994        8 
O       1.32170016       2.16013743      -1.63187236        8 
O       1.24856378      -1.61219099       0.74942465        8 
O       1.96909706      -1.24947340      -1.34506227        8 
C       2.59207254      -1.95147992       1.13340167        6 
C       2.73326991       2.00285986       0.61282446        6 
C      -1.54303657       0.96613650       0.32213556        6 
C      -2.91632122       0.72107945      -0.34672056        6 
C      -2.83562809      -0.79675861      -0.64323480        6 
C      -1.50691100      -1.20393357       0.06833932        6 
O      -1.39597736      -0.22303336       1.11591278        8 
H      -0.89035107       1.12880039      -1.76483724        1 
H      -0.49482549      -1.13214463      -1.89802639        1 
H       3.25197745      -1.09473924       0.98968994        1 
H       2.66398101       3.08344693       0.47886200        1 
H      -3.70836227       0.94211649       0.37131563        1 
H      -3.07703318       1.33683439      -1.23392127        1 
H      -3.67448904      -1.33862796      -0.20374950        1 
H      -2.81474709      -1.02866620      -1.71038480        1 
H       2.53220034      -2.21544972       2.18684385        1 
H       2.96194771      -2.79108914       0.54324485        1 
H       3.41857117       1.59164127      -0.12970263        1 
H       3.06285365       1.76301697       1.62149000        1 
C      -1.52488324      -2.61582243       0.61629985        6 
H      -2.41081720      -2.75176687       1.24078696        1 
H      -1.57803563      -3.33366447      -0.20783017        1 
H      -0.63973037      -2.82703741       1.21071696        1 
C      -1.44558670       2.20940677       1.17664539        6 
H      -2.26691848       2.23043800       1.89643034        1 
H      -0.50201891       2.23295267       1.71996838        1 
H      -1.51479323       3.10377455       0.55074452        1 
