35
Lattice="0.0 0.0 0.0 0.0 0.0 0.0 0.0 0.0 0.0" Properties=species:S:1:pos:R:3:Z:I:1 pbc="F F F"
C       0.44663168       0.85606539       0.65893310        6 
C       0.12401008      -0.68318259       0.62163491        6 
C      -0.61075928       1.70040130      -0.03845479        6 
C      -1.18627906      -1.04343370      -0.04114525        6 
O      -1.76372868       1.62299535       0.67449923        8 
O      -0.50368061       2.35078899      -1.04287445        8 
O      -1.95470611      -1.78146457       0.79208117        8 
O      -1.51056525      -0.77312676      -1.17143530        8 
C      -3.22213605      -2.20958204       0.26163234        6 
C      -2.91700563       2.23501019       0.06731693        6 
C       1.87853498       0.87758037       0.03872955        6 
C       2.83437426       0.21826509       1.07907993        6 
C       2.53234215      -1.29025234       0.89389884        6 
C       1.38409600      -1.24292261      -0.14357296        6 
O       1.77257255      -0.14171291      -0.97256372        8 
H       0.46011680       1.19299016       1.69777049        1 
H       0.08856714      -1.08380274       1.63310526        1 
H      -3.07696404      -2.83676889      -0.61933436        1 
H      -3.12870303       1.75544073      -0.88980332        1 
H       3.86945401       0.45328750       0.82692893        1 
H       2.64960647       0.57793628       2.09397519        1 
H       3.38751245      -1.81650494       0.46466956        1 
H       2.24849060      -1.80235706       1.81512794        1 
H      -3.69550568      -2.77490178       1.06141501        1 
H      -3.83099546      -1.34584366      -0.01020745        1 
H      -2.74979990       3.30136340      -0.08964454        1 
H      -3.73320570       2.07501589       0.76883302        1 
C       1.18604423      -2.49812333      -0.96390019        6 
H       2.12644203      -2.77438516      -1.44520951        1 
H       0.87194062      -3.32649378      -0.32214311        1 
H       0.43222889      -2.34206970      -1.73567290        1 
C       2.39619746       2.17539715      -0.54365969        6 
H       3.41980056       2.03074707      -0.89710563        1 
H       1.77188959       2.51126096      -1.36711222        1 
H       2.40726138       2.95432589       0.22469107        1 
