35
Lattice="0.0 0.0 0.0 0.0 0.0 0.0 0.0 0.0 0.0" Properties=species:S:1:pos:R:3:Z:I:1 pbc="F F F"
C      -0.26607206       0.57788090      -0.80514010        6 
C      -0.07249866      -0.95448207      -0.46893077        6 
C       0.83234862       1.43572209      -0.16760205        6 
C       1.32566127      -1.35630329      -0.03474382        6 
O       0.40690602       2.32584809       0.73867442        8 
O       2.00154709       1.30079745      -0.44578531        8 
O       2.11258126      -1.45707460      -1.12471273        8 
O       1.68418576      -1.66416517       1.07548348        8 
C       3.50786878      -1.69850196      -0.87838108        6 
C       1.43232984       3.09400590       1.39942128        6 
C      -1.73430139       0.76300539      -0.31582755        6 
C      -2.63944415      -0.16570819      -1.19308683        6 
C      -2.47372635      -1.53932455      -0.50387773        6 
C      -1.30653598      -1.24059677       0.46521098        6 
O      -1.68060240       0.06806528       0.94474678        8 
H      -0.16488840       0.73629782      -1.88079317        1 
H      -0.21233565      -1.50215193      -1.40286409        1 
H       3.64693667      -2.62873230      -0.32550263        1 
H       2.00782952       3.66864973       0.67280141        1 
H      -3.67289872       0.18173415      -1.16418684        1 
H      -2.32356228      -0.16698608      -2.23940147        1 
H      -3.36030188      -1.80229600       0.07658226        1 
H      -2.25855903      -2.35858433      -1.19327574        1 
H       3.96842825      -1.76274344      -1.86181390        1 
H       3.93006052      -0.86596280      -0.31406898        1 
H       2.10143927       2.43055225       1.94827676        1 
H       0.89995088       3.75343801       2.08107253        1 
C      -1.15496267      -2.20802472       1.61664543        6 
H      -2.11415929      -2.30360429       2.13124923        1 
H      -0.85975367      -3.19356333       1.24746818        1 
H      -0.39638405      -1.87195512       2.31994570        1 
C      -2.30946531       2.15757205      -0.16790443        6 
H      -3.35274593       2.08093156       0.14667938        1 
H      -1.76263198       2.74866132       0.55938961        1 
H      -2.28414077       2.67503810      -1.13194034        1 
