35
Lattice="0.0 0.0 0.0 0.0 0.0 0.0 0.0 0.0 0.0" Properties=species:S:1:pos:R:3:Z:I:1 pbc="F F F"
C      -0.74089639      -0.20218971      -0.66884488        6 
C       0.81399930      -0.16745980      -0.67358392        6 
C      -1.39408838       1.14941596      -0.43424507        6 
C       1.41995845       0.95472613       0.15412371        6 
O      -2.69524714       1.03828130      -0.10737875        8 
O      -0.85163662       2.20946542      -0.63051410        8 
O       2.42699906       1.54404045      -0.52932756        8 
O       1.11629174       1.25195549       1.28087159        8 
C       3.08918218       2.62610739       0.14894136        6 
C      -3.41652032       2.27642261       0.04539388        6 
C      -1.04349469      -1.47252875       0.22596343        6 
C      -0.87561613      -2.69143459      -0.71819261        6 
C       0.65500014      -2.67492264      -0.97216349        6 
C       1.12952917      -1.54968106      -0.00666572        6 
O       0.14157739      -1.58747295       1.03220469        8 
H      -1.07875710      -0.43324906      -1.68576199        1 
H       1.21950518      -0.10305635      -1.68186099        1 
H       3.57001263       2.26956259       1.06162499        1 
H      -3.41622967       2.83496647      -0.89174794        1 
H      -1.17646326      -3.59772385      -0.18906306        1 
H      -1.47718727      -2.61385574      -1.62645029        1 
H       1.11685898      -3.62331267      -0.69228525        1 
H       0.92527003      -2.46773808      -2.00992690        1 
H       3.83092054       2.99884101      -0.55427415        1 
H       2.37048638       3.40664023       0.40223035        1 
H      -2.96165781       2.88491354       0.82774429        1 
H      -4.42846233       1.98797093       0.32120269        1 
C       2.52175754      -1.72682223       0.55798675        6 
H       2.61775798      -2.71817195       1.00572349        1 
H       3.26731895      -1.62956389      -0.23545036        1 
H       2.72893437      -0.98151209       1.32712387        1 
C      -2.26742275      -1.50447024       1.11248808        6 
H      -2.26176716      -2.43775407       1.68062239        1 
H      -2.27117501      -0.66908200       1.81214163        1 
H      -3.18028542      -1.45774784       0.51744680        1 
