35
Lattice="0.0 0.0 0.0 0.0 0.0 0.0 0.0 0.0 0.0" Properties=species:S:1:pos:R:3:Z:I:1 pbc="F F F"
C       0.48277198       0.86425453       0.60945674        6 
C       0.02976819      -0.62641396       0.68802991        6 
C      -0.59357042       1.84376258       0.17054096        6 
C      -1.18202125      -0.94926492      -0.15985083        6 
O      -1.72003184       1.61050108       0.88926557        8 
O      -0.47825716       2.76966189      -0.58857089        8 
O      -1.84584871      -2.01018110       0.35358445        8 
O      -1.51784489      -0.38504961      -1.17083765        8 
C      -2.98561452      -2.46109408      -0.40104259        6 
C      -2.85846250       2.42416353       0.55704170        6 
C       1.82261693       0.76553455      -0.20415919        6 
C       2.90027909       0.31031280       0.81517508        6 
C       2.46548148      -1.15143013       1.09850854        6 
C       1.29793479      -1.33882922       0.08854790        6 
O       1.64268103      -0.44132207      -0.97294510        8 
H       0.71182675       1.19863103       1.62665897        1 
H      -0.16585197      -0.95665317       1.70670596        1 
H      -2.68191060      -2.77645961      -1.40072490        1 
H      -3.15892096       2.23819385      -0.47544227        1 
H       3.88115596       0.34255975       0.33775072        1 
H       2.93396405       0.94184343       1.70505297        1 
H       3.26591248      -1.85907369       0.87597300        1 
H       2.14728901      -1.32192675       2.12934698        1 
H      -3.39128266      -3.30090765       0.15880506        1 
H      -3.72419611      -1.66269965      -0.48710546        1 
H      -2.62632291       3.48250001       0.68284998        1 
H      -3.64432755       2.11938711       1.24518301        1 
C       1.11460276      -2.74678916      -0.43484180        6 
H       2.06236347      -3.11533838      -0.83312786        1 
H       0.78823050      -3.41337069       0.36652808        1 
H       0.37466010      -2.77939298      -1.23685546        1 
C       2.23557967       1.90420893      -1.10910406        6 
H       3.20115723       1.66369833      -1.56086879        1 
H       1.50076804       2.06967619      -1.89369228        1 
H       2.33397207       2.83162912      -0.54120897        1 
