35
Lattice="0.0 0.0 0.0 0.0 0.0 0.0 0.0 0.0 0.0" Properties=species:S:1:pos:R:3:Z:I:1 pbc="F F F"
C      -0.68776041       0.68611615      -0.81102198        6 
C       0.01428230      -0.70459848      -0.69552491        6 
C      -0.02084226       1.84518667      -0.06648253        6 
C       1.52840911      -0.66766659      -0.82860975        6 
O       1.21205338       1.55203577       0.38186324        8 
O      -0.56866386       2.89102122       0.18594532        8 
O       2.19393757      -1.34498699       0.12143332        8 
O       2.07217104      -0.12949984      -1.76340039        8 
C       3.62682244      -1.36451216      -0.01043136        6 
C       1.87558996       2.57655800       1.14216219        6 
C      -2.03793923       0.32425563      -0.08073423        6 
C      -2.71883277      -0.85947036      -0.84293500        6 
C      -1.97845803      -2.09424735      -0.27015733        6 
C      -0.80373342      -1.40723777       0.46216836        6 
O      -1.49614541      -0.31057842       1.09529430        8 
H      -0.83651721       0.99383110      -1.84708580        1 
H      -0.23976095      -1.23581930      -1.61889415        1 
H       4.02272708      -0.34829681       0.01036683        1 
H       1.30264836       2.81267191       2.03975765        1 
H      -3.78596646      -0.88558095      -0.62141681        1 
H      -2.61208687      -0.75741912      -1.92586448        1 
H      -2.59621524      -2.62365660       0.45828418        1 
H      -1.65311637      -2.80783490      -1.03050895        1 
H       3.98731734      -1.93652112       0.84192470        1 
H       3.91850057      -1.84269496      -0.94667849        1 
H       1.99464957       3.47804708       0.53984619        1 
H       2.84558665       2.15927153       1.40332042        1 
C      -0.10527518      -2.24233518       1.50927673        6 
H      -0.85192334      -2.62142568       2.21179806        1 
H       0.40931357      -3.08873664       1.05124197        1 
H       0.63008930      -1.65542927       2.05734949        1 
C      -3.01055726       1.42251069       0.29191110        6 
H      -3.88022671       0.97153548       0.77644390        1 
H      -2.56716016       2.15418754       0.96128932        1 
H      -3.34614022       1.94655371      -0.60634296        1 
