35
Lattice="0.0 0.0 0.0 0.0 0.0 0.0 0.0 0.0 0.0" Properties=species:S:1:pos:R:3:Z:I:1 pbc="F F F"
C       0.40361435       0.84675480       0.64821806        6 
C       0.17498710      -0.71356743       0.59955042        6 
C      -0.66939392       1.63110740      -0.09682630        6 
C      -1.14178228      -1.13178047      -0.01780754        6 
O      -1.86286598       1.42985891       0.51601311        8 
O      -0.53802696       2.35362944      -1.04832755        8 
O      -1.96780102      -1.63931336       0.92391066        8 
O      -1.42644099      -1.08455391      -1.18987655        8 
C      -3.26629824      -2.05094838       0.46325107        6 
C      -3.01158471       2.00097233      -0.13682592        6 
C       1.85149762       0.94787257       0.07890374        6 
C       2.80386256       0.30246209       1.13290867        6 
C       2.59850347      -1.21181692       0.87937509        6 
C       1.46186809      -1.18948498      -0.17190179        6 
O       1.81593268      -0.04514411      -0.96192612        8 
H       0.35278078       1.18661687       1.68524552        1 
H       0.17867087      -1.10962415       1.61374514        1 
H      -3.17605380      -2.81457317      -0.31066151        1 
H      -3.13105488       1.55965746      -1.12773694        1 
H       3.83243514       0.60755933       0.93467684        1 
H       2.55875052       0.61130221       2.15203492        1 
H       3.48865736      -1.66444426       0.43805820        1 
H       2.33661974      -1.77910678       1.77449703        1 
H      -3.77305833      -2.44927249       1.33951643        1 
H      -3.81284071      -1.19634766       0.06072148        1 
H      -2.90402585       3.08223236      -0.23008983        1 
H      -3.85879190       1.75417050       0.49985196        1 
C       1.34485004      -2.42758088      -1.03268329        6 
H       2.31288331      -2.64869793      -1.48732031        1 
H       1.04811935      -3.28662620      -0.42346050        1 
H       0.60785567      -2.28436775      -1.82148546        1 
C       2.33314052       2.28285768      -0.44942734        6 
H       3.37482079       2.19085595      -0.76558000        1 
H       1.72729973       2.61531383      -1.28749866        1 
H       2.28077933       3.03974667       0.33898924        1 
