35
Lattice="0.0 0.0 0.0 0.0 0.0 0.0 0.0 0.0 0.0" Properties=species:S:1:pos:R:3:Z:I:1 pbc="F F F"
C      -0.79086164      -0.07966304      -0.71224840        6 
C       0.74925889      -0.24814117      -0.66101201        6 
C      -1.31775773       1.05666912       0.14635524        6 
C       1.51587872       1.05320810      -0.50671897        6 
O      -2.44071529       1.57031297      -0.40781884        8 
O      -0.86148373       1.43115752       1.19536574        8 
O       2.78942980       0.85587446      -0.11758498        8 
O       1.07574959       2.13630444      -0.80539548        8 
C       3.61096288       2.03654042      -0.03218513        6 
C      -3.07635260       2.62798533       0.33155462        6 
C      -1.23256427      -1.44205605      -0.06996014        6 
C      -0.75904623      -2.59976114      -1.00069790        6 
C       0.73826379      -2.73473819      -0.61152806        6 
C       0.92241802      -1.49642972       0.29970288        6 
O      -0.31754678      -1.52294116       1.03103403        8 
H      -1.17442958       0.03768065      -1.72446238        1 
H       1.07711642      -0.57021374      -1.65663791        1 
H       3.18677154       2.74109379       0.68410307        1 
H      -2.40486793       3.48319198       0.42056583        1 
H      -1.31708653      -3.51134277      -0.78083506        1 
H      -0.91289535      -2.36300032      -2.05606923        1 
H       0.91198386      -3.63974726      -0.02573974        1 
H       1.41928365      -2.74428446      -1.46519271        1 
H       4.58488205       1.68613916       0.30248129        1 
H       3.68849130       2.51803345      -1.00815328        1 
H      -3.35503029       2.28474085       1.32943249        1 
H      -3.96123705       2.89292494      -0.24331190        1 
C       2.08202755      -1.55261337       1.26629652        6 
H       1.98615029      -2.45493659       1.87491955        1 
H       3.03276530      -1.58239577       0.73306389        1 
H       2.08457036      -0.68371252       1.92436513        1 
C      -2.66387075      -1.54110445       0.40909957        6 
H      -2.83461446      -2.52145715       0.85922579        1 
H      -2.88252643      -0.77900802       1.15891894        1 
H      -3.35640036      -1.41438643      -0.42651367        1 
