35
Lattice="0.0 0.0 0.0 0.0 0.0 0.0 0.0 0.0 0.0" Properties=species:S:1:pos:R:3:Z:I:1 pbc="F F F"
C       0.31173875       0.83078087       0.65778247        6 
C       0.19979174      -0.73841024       0.54553024        6 
C      -0.68125199       1.61896591      -0.20153151        6 
C      -1.14713085      -1.31386183       0.15230028        6 
O      -1.93918405       1.16180495      -0.02106295        8 
O      -0.43674044       2.56286125      -0.90808643        8 
O      -1.95576379      -1.34235728       1.23804231        8 
O      -1.44969750      -1.81585699      -0.90171007        8 
C      -3.27977903      -1.85139339       1.01927463        6 
C      -2.96921181       1.80685479      -0.79310404        6 
C       1.79844426       1.00951248       0.21736880        6 
C       2.69437496       0.24507824       1.24892942        6 
C       2.61749690      -1.21419751       0.73933246        6 
C       1.48017548      -1.09650485      -0.30164284        6 
O       1.82259215       0.14991610      -0.93836872        8 
H       0.14036714       1.14871203       1.68953756        1 
H       0.34426027      -1.12548566       1.55574048        1 
H      -3.24269234      -2.88453661       0.67006945        1 
H      -2.80554362       1.63282630      -1.85748072        1 
H       3.71291024       0.63333119       1.22205465        1 
H       2.32490399       0.36445212       2.27075820        1 
H       3.53912242      -1.50455060       0.23110271        1 
H       2.40651604      -1.94907195       1.51906444        1 
H      -3.77907265      -1.79052675       1.98402644        1 
H      -3.80410770      -1.24377458       0.27952348        1 
H      -2.97991249       2.87953360      -0.59744803        1 
H      -3.90154858       1.34833489      -0.47106394        1 
C       1.41192000      -2.21103332      -1.32062564        6 
H       2.39260481      -2.32247825      -1.78914157        1 
H       1.14826871      -3.15541848      -0.83804744        1 
H       0.66539913      -2.00257837      -2.08329063        1 
C       2.32459763       2.39164494      -0.11280534        6 
H       3.38785940       2.31547112      -0.35234471        1 
H       1.79488506       2.83428878      -0.95031240        1 
H       2.21600157       3.05118755       0.75315819        1 
