35
Lattice="0.0 0.0 0.0 0.0 0.0 0.0 0.0 0.0 0.0" Properties=species:S:1:pos:R:3:Z:I:1 pbc="F F F"
C      -0.24317391       0.55966938      -0.75032260        6 
C       0.12614002      -0.91724283      -0.47926935        6 
C       0.43152416       1.51168127       0.24394005        6 
C       1.56854430      -1.34545687      -0.28500767        6 
O      -0.04506872       2.76954479       0.10807833        8 
O       1.36824694       1.25294076       0.95515191        8 
O       2.43133934      -0.46439578      -0.82366918        8 
O       1.89587441      -2.45957319       0.05267423        8 
C       3.81346755      -0.85916566      -0.83340303        6 
C       0.57486621       3.77056902       0.93556115        6 
C      -1.78314013       0.45419968      -0.39048995        6 
C      -2.45560798      -0.66919009      -1.25259862        6 
C      -2.10720643      -1.95742952      -0.45653686        6 
C      -1.02083175      -1.40554975       0.48821916        6 
O      -1.64948509      -0.17065580       0.90280418        8 
H      -0.04075586       0.89491439      -1.76773059        1 
H      -0.04846725      -1.43455947      -1.43125019        1 
H       3.94683715      -1.78080638      -1.40259545        1 
H       1.63823996       3.85073154       0.70470928        1 
H      -3.53170258      -0.50432199      -1.30864580        1 
H      -2.07411388      -0.67780374      -2.27686420        1 
H      -2.96061234      -2.30410734       0.12981795        1 
H      -1.75214197      -2.78206462      -1.07838247        1 
H       4.34560234      -0.03470041      -1.30292963        1 
H       4.16922303      -1.01051631       0.18661947        1 
H       0.45547532       3.52093286       1.99077412        1 
H       0.05974633       4.69964104       0.70050784        1 
C      -0.64903769      -2.23716835       1.68950314        6 
H      -1.54595791      -2.43727772       2.28103022        1 
H      -0.20185411      -3.18046662       1.37729031        1 
H       0.07452900      -1.71041373       2.31368373        1 
C      -2.63145586       1.70633445      -0.30340265        6 
H      -3.66430094       1.42132866      -0.08991551        1 
H      -2.28747846       2.38260479       0.47410387        1 
H      -2.60980074       2.24359467      -1.25474321        1 
