35
Lattice="0.0 0.0 0.0 0.0 0.0 0.0 0.0 0.0 0.0" Properties=species:S:1:pos:R:3:Z:I:1 pbc="F F F"
C      -0.18422235       0.75769993      -0.79423202        6 
C      -0.55682991      -0.77161323      -0.77551668        6 
C       1.30795282       1.06150853      -0.75607967        6 
C       0.43853857      -1.80193244      -0.26402849        6 
O       1.76927929       1.52268203       0.41597191        8 
O       2.00318093       0.93426372      -1.73739802        8 
O       1.55356005      -1.28623451       0.27185129        8 
O       0.20503729      -2.98796683      -0.28072985        8 
C       2.50606544      -2.22987220       0.79528345        6 
C       3.18327267       1.77285340       0.47293663        6 
C      -1.18683075       1.35774863       0.25614426        6 
C      -2.54570950       1.48274505      -0.48358941        6 
C      -2.95866224      -0.00087438      -0.63345386        6 
C      -1.83558691      -0.73144681       0.15682417        6 
O      -1.43960936       0.24437375       1.13362220        8 
H      -0.45708045       1.13280712      -1.78261974        1 
H      -0.83135296      -1.11861158      -1.77188350        1 
H       2.86162284      -2.88821322       0.00157579        1 
H       3.46987545       2.53505739      -0.25322900        1 
H      -3.24903879       2.02527773       0.15069622        1 
H      -2.46207129       2.01830554      -1.43137878        1 
H      -3.92456228      -0.19570102      -0.16482582        1 
H      -3.01826201      -0.33967702      -1.66962462        1 
H       3.32122570      -1.62775041       1.18975151        1 
H       2.05160786      -2.82769858       1.58596522        1 
H       3.73593364       0.85579630       0.26262872        1 
H       3.37672741       2.11565443       1.48712656        1 
C      -2.28457412      -2.00536381       0.83830803        6 
H      -3.17545277      -1.78919068       1.43259587        1 
H      -2.52608203      -2.77251859       0.10106161        1 
H      -1.51566840      -2.40501865       1.49820095        1 
C      -0.80272865       2.58811476       1.04949026        6 
H      -1.65813535       2.91063624       1.64753613        1 
H       0.03742784       2.38609123       1.70842755        1 
H      -0.52551142       3.40485163       0.37743605        1 
