35
Lattice="0.0 0.0 0.0 0.0 0.0 0.0 0.0 0.0 0.0" Properties=species:S:1:pos:R:3:Z:I:1 pbc="F F F"
C      -0.67692666      -0.64470080      -0.57305690        6 
C       0.65581426       0.18097070      -0.67271634        6 
C      -1.84372117       0.06806666       0.09667676        6 
C       0.58245495       1.60910321      -0.14602298        6 
O      -2.64409786       0.60996208      -0.84892557        8 
O      -2.10088563       0.08029983       1.27339201        8 
O       1.80620779       2.16895689      -0.07450592        8 
O      -0.42877000       2.23553338       0.05352844        8 
C       1.84458646       3.55614696       0.31237756        6 
C      -3.73524078       1.40607936      -0.35760479        6 
C      -0.19326817      -1.94544504       0.14778548        6 
C       0.60629046      -2.76572877      -0.90233225        6 
C       1.92660716      -1.96244587      -0.99426179        6 
C       1.67435715      -0.81342624       0.02130797        6 
O       0.84785527      -1.44965482       1.00610692        8 
H      -1.02128832      -0.88132355      -1.57996102        1 
H       0.93971313       0.30922001      -1.72065031        1 
H       1.41393245       3.68619909       1.30609348        1 
H      -3.34707388       2.25270418       0.21069430        1 
H       0.78125124      -3.77398882      -0.52293764        1 
H       0.07507647      -2.85189907      -1.85207379        1 
H       2.77698188      -2.56012778      -0.66161322        1 
H       2.15152878      -1.59117232      -1.99638368        1 
H       2.89830070       3.82580852       0.31243000        1 
H       1.28967346       4.16576162      -0.40219262        1 
H      -4.39185573       0.80969102       0.27789028        1 
H      -4.26699385       1.74902763      -1.24287604        1 
C       2.93175474      -0.28550305       0.67883659        6 
H       3.47982663      -1.13014219       1.10319161        1 
H       3.56940917       0.21987939      -0.04779725        1 
H       2.70312787       0.41686876       1.47926393        1 
C      -1.20905041      -2.75110972       0.92882675        6 
H      -0.72108821      -3.62893334       1.35884846        1 
H      -1.65042228      -2.15890587       1.72718685        1 
H      -2.00747001      -3.09690084       0.26497505        1 
