35
Lattice="0.0 0.0 0.0 0.0 0.0 0.0 0.0 0.0 0.0" Properties=species:S:1:pos:R:3:Z:I:1 pbc="F F F"
C      -0.75343755      -0.20329283      -0.74381247        6 
C       0.80666904      -0.28174259      -0.78043000        6 
C      -1.29495416       0.99454460       0.01487281        6 
C       1.45080035       1.09743418      -0.70289764        6 
O      -2.60465282       1.16887233      -0.26851944        8 
O      -0.67537791       1.72260108       0.74900937        8 
O       2.34212150       1.26004052       0.28176993        8 
O       1.18712709       1.95294102      -1.51581037        8 
C       2.88254492       2.58824422       0.41824925        6 
C      -3.25609838       2.26311618       0.40200758        6 
C      -1.07657979      -1.52459811       0.05092282        6 
C      -0.65180326      -2.72898838      -0.83919048        6 
C       0.88237147      -2.75973103      -0.62512696        6 
C       1.10613546      -1.46968868       0.20773805        6 
O      -0.05663473      -1.48836023       1.05944085        8 
H      -1.20413937      -0.21046258      -1.73474079        1 
H       1.08778884      -0.60240343      -1.78778424        1 
H       2.07492163       3.29366599       0.61655929        1 
H      -2.74780790       3.20199663       0.17931819        1 
H      -1.12624274      -3.64426452      -0.48123874        1 
H      -0.94594601      -2.58919567      -1.88178405        1 
H       1.17943386      -3.62567774      -0.03058018        1 
H       1.45994471      -2.77142218      -1.55140089        1 
H       3.56523236       2.53581428       1.26353287        1 
H       3.41151120       2.88351860      -0.48891822        1 
H      -3.25717296       2.10170074       1.48157613        1 
H      -4.27336668       2.27509790       0.01675532        1 
C       2.36617626      -1.47056115       1.04319860        6 
H       2.41655125      -2.40288920       1.61089774        1 
H       3.25026694      -1.40392199       0.40491281        1 
H       2.38011399      -0.62970681       1.73217056        1 
C      -2.44280905      -1.65732503       0.68858252        6 
H      -2.50770479      -2.61935417       1.20160928        1 
H      -2.61903008      -0.86773808       1.42001595        1 
H      -3.22914619      -1.60651975      -0.06714773        1 
