35
Lattice="0.0 0.0 0.0 0.0 0.0 0.0 0.0 0.0 0.0" Properties=species:S:1:pos:R:3:Z:I:1 pbc="F F F"
C      -0.77290882       0.00750603      -0.76677037        6 
C       0.73097355      -0.36608666      -0.68808151        6 
C      -1.12584324       1.21029679       0.09551284        6 
C       1.65096841       0.84407839      -0.65826337        6 
O      -2.38040980       1.62981270      -0.18150313        8 
O      -0.40535430       1.75801555       0.89004934        8 
O       2.77319364       0.65989040       0.05531125        8 
O       1.42657210       1.84196760      -1.30015425        8 
C       3.68993166       1.77100702       0.08000566        6 
C      -2.84809803       2.76358170       0.57157715        6 
C      -1.38726985      -1.28654702      -0.11274065        6 
C      -0.99578605      -2.51627627      -0.99229540        6 
C       0.44675629      -2.81764380      -0.50616372        6 
C       0.73659298      -1.56091700       0.34883365        6 
O      -0.52643554      -1.41626998       1.02964332        8 
H      -1.13433833       0.17471477      -1.78026583        1 
H       0.99539991      -0.79693953      -1.66121180        1 
H       3.19480953       2.65697057       0.47874644        1 
H      -2.21883363       3.63351437       0.37836967        1 
H      -1.67042114      -3.35145241      -0.79961465        1 
H      -1.05377313      -2.28569292      -2.05877723        1 
H       0.46913894      -3.70164257       0.13427310        1 
H       1.16731350      -2.95885632      -1.31456818        1 
H       4.50366521       1.45751364       0.73030833        1 
H       4.05877844       1.98447740      -0.92445586        1 
H      -2.83741098       2.54303645       1.64032464        1 
H      -3.86466789       2.94039364       0.22696855        1 
C       1.84781694      -1.69081083       1.36292445        6 
H       1.63974805      -2.55298668       2.00162295        1 
H       2.80938714      -1.84016256       0.87028413        1 
H       1.91667391      -0.79812003       1.98304050        1 
C      -2.83746796      -1.25922601       0.31837618        6 
H      -3.10191865      -2.22709571       0.75043058        1 
H      -3.01812588      -0.48847312       1.06683331        1 
H      -3.49057595      -1.06536149      -0.53537895        1 
