35
Lattice="0.0 0.0 0.0 0.0 0.0 0.0 0.0 0.0 0.0" Properties=species:S:1:pos:R:3:Z:I:1 pbc="F F F"
C      -0.75759769       0.06040714      -0.76873498        6 
C       0.74610390      -0.23533106      -0.58449794        6 
C      -1.28602214       1.16073219       0.14304020        6 
C       1.68316393       0.95445364      -0.51214571        6 
O      -2.53064292       1.52482190      -0.25554834        8 
O      -0.70356874       1.69341551       1.04878632        8 
O       2.95386670       0.54009775      -0.29219851        8 
O       1.39188118       2.10621625      -0.70448128        8 
C       3.95425461       1.57438193      -0.25674447        6 
C      -3.15274875       2.57145847       0.51023626        6 
C      -1.32431719      -1.31384616      -0.22500591        6 
C      -0.72995578      -2.49480539      -1.05867524        6 
C       0.66068204      -2.70135072      -0.39560201        6 
C       0.74946820      -1.42403435       0.46672297        6 
O      -0.58588409      -1.38971109       1.00643576        8 
H      -1.04627095       0.26590523      -1.79854955        1 
H       1.07858582      -0.68136007      -1.52988410        1 
H       3.72684132       2.29624396       0.52876741        1 
H      -2.54530540       3.47704240       0.47954695        1 
H      -1.36152581      -3.37876327      -0.96132469        1 
H      -0.66783297      -2.24992541      -2.12190513        1 
H       0.66306603      -3.57958371       0.25348848        1 
H       1.48123006      -2.79544941      -1.11014409        1 
H       4.89187999       1.06321260      -0.04881656        1 
H       4.00325732       2.09194849      -1.21618589        1 
H      -3.28075481       2.26219619       1.54927870        1 
H      -4.11941776       2.74019147       0.04032408        1 
C       1.75642072      -1.41064736       1.59028719        6 
H       1.55139387      -2.24898105       2.26031976        1 
H       2.77090625      -1.50155871       1.20311799        1 
H       1.68258009      -0.48284160       2.16041155        1 
C      -2.81039945      -1.43090404       0.03558619        6 
H      -3.02544504      -2.42375955       0.43731816        1 
H      -3.15745256      -0.68684937       0.75119788        1 
H      -3.37244366      -1.30030061      -0.89209033        1 
