35
Lattice="0.0 0.0 0.0 0.0 0.0 0.0 0.0 0.0 0.0" Properties=species:S:1:pos:R:3:Z:I:1 pbc="F F F"
C      -0.73786225      -0.20383619      -0.65225152        6 
C       0.81428799      -0.14576019      -0.67736423        6 
C      -1.42094670       1.13109684      -0.41521516        6 
C       1.42002211       0.96969707       0.16060972        6 
O      -2.73886292       0.98125319      -0.17587899        8 
O      -0.89132910       2.20829091      -0.53535929        8 
O       2.40695722       1.58404558      -0.53143909        8 
O       1.13236420       1.24523291       1.29658048        8 
C       3.06589243       2.66436415       0.15276408        6 
C      -3.49609669       2.19749229      -0.02337481        6 
C      -1.01217324      -1.47466004       0.25385299        6 
C      -0.86094878      -2.69334837      -0.69117058        6 
C       0.66045644      -2.65381388      -0.99617969        6 
C       1.15445902      -1.53333222      -0.03329888        6 
O       0.19316257      -1.58398908       1.02979243        8 
H      -1.08350743      -0.44964605      -1.66287708        1 
H       1.20523729      -0.06233798      -1.69014210        1 
H       3.56035802       2.30181962       1.05570306        1 
H      -3.44828411       2.79241253      -0.93666141        1 
H      -1.13021300      -3.60230123      -0.14941997        1 
H      -1.49295675      -2.62770547      -1.57943463        1 
H       1.14408683      -3.59954450      -0.74598797        1 
H       0.89034422      -2.42910320      -2.04003426        1 
H       3.79599841       3.05313632      -0.55397726        1 
H       2.34224925       3.43450878       0.42339061        1 
H      -3.10677561       2.78428038       0.80936106        1 
H      -4.51699241       1.87844067       0.17483711        1 
C       2.56134677      -1.70804395       0.49398274        6 
H       2.67251436      -2.70110555       0.93441388        1 
H       3.28554798      -1.60476063      -0.31828206        1 
H       2.78664981      -0.96560583       1.26085688        1 
C      -2.21263130      -1.50227942       1.17168788        6 
H      -2.18662806      -2.42705700       1.75288982        1 
H      -2.20178474      -0.65726793       1.86047892        1 
H      -3.14082882      -1.46808423       0.60035216        1 
