35
Lattice="0.0 0.0 0.0 0.0 0.0 0.0 0.0 0.0 0.0" Properties=species:S:1:pos:R:3:Z:I:1 pbc="F F F"
C      -0.41737833       0.72529305      -0.64989647        6 
C       0.11501116      -0.74580857      -0.58614124        6 
C       0.34510829       1.77699460       0.14228896        6 
C       1.49870877      -1.00075009      -0.02403338        6 
O       0.87628777       2.68952109      -0.71718236        8 
O       0.49091887       1.83525923       1.33197164        8 
O       2.15100929      -1.87883712      -0.83454490        8 
O       1.97889279      -0.57443892       0.99263523        8 
C       3.45425695      -2.29228016      -0.38688738        6 
C       1.65292509       3.73631255      -0.10755180        6 
C      -1.86446925       0.51909910      -0.07044947        6 
C      -2.67407000      -0.32022246      -1.10270916        6 
C      -2.15953412      -1.75638519      -0.82571847        6 
C      -1.04258958      -1.47982188       0.20884858        6 
O      -1.62000481      -0.42430828       0.98321361        8 
H      -0.45499291       1.06381170      -1.68396069        1 
H       0.14386357      -1.14186770      -1.60040294        1 
H       3.38369038      -2.79665359       0.57843274        1 
H       2.48715679       3.31194742       0.45341931        1 
H      -3.74231622      -0.23089142      -0.89866628        1 
H      -2.50241548       0.01236520      -2.12877920        1 
H      -2.93411737      -2.37102358      -0.36257313        1 
H      -1.79780097      -2.27839106      -1.71339966        1 
H       3.82062801      -2.97525510      -1.15039423        1 
H       4.11710262      -1.43101704      -0.29114110        1 
H       1.03358311       4.32892732       0.56802402        1 
H       2.01368105       4.34854066      -0.93140903        1 
C      -0.64269606      -2.64330222       1.08668048        6 
H      -1.52397255      -3.04557847       1.59082314        1 
H      -0.19826118      -3.43835321       0.48201303        1 
H       0.07705511      -2.33004328       1.84462610        1 
C      -2.58000919       1.74621815       0.45067116        6 
H      -3.55464193       1.45901539       0.85090459        1 
H      -2.00839478       2.22842289       1.24316697        1 
H      -2.74041814       2.46203820      -0.36075554        1 
