35
Lattice="0.0 0.0 0.0 0.0 0.0 0.0 0.0 0.0 0.0" Properties=species:S:1:pos:R:3:Z:I:1 pbc="F F F"
C      -0.35898881       0.69999466      -0.88248996        6 
C      -0.35440912      -0.86136484      -0.72911693        6 
C       0.93861190       1.43275065      -0.56675995        6 
C       0.91292819      -1.64916567      -0.45304867        6 
O       1.15194902       1.62568886       0.74443816        8 
O       1.68619409       1.83197581      -1.42906435        8 
O       1.97022089      -0.92006691      -0.07080389        8 
O       0.94726590      -2.85368082      -0.56140969        8 
C       3.18661728      -1.64868945       0.18317869        6 
C       2.39125983       2.26304142       1.08854312        6 
C      -1.59390310       1.07343250       0.00273286        6 
C      -2.86648623       0.53023611      -0.71810518        6 
C      -2.83184842      -0.97478110      -0.35209567        6 
C      -1.47493532      -1.07288181       0.38417798        6 
O      -1.44393630       0.16630005       1.10627827        8 
H      -0.54573869       0.95229296      -1.92669767        1 
H      -0.71628637      -1.30812281      -1.65600706        1 
H       3.48455479      -2.20976129      -0.70304074        1 
H       2.43531860       3.27153010       0.67329439        1 
H      -3.75655104       1.01932070      -0.31931355        1 
H      -2.83809683       0.71805792      -1.79338582        1 
H      -3.63578070      -1.23273240       0.34000799        1 
H      -2.89269918      -1.64449287      -1.21152718        1 
H       3.92964997      -0.89325129       0.42730377        1 
H       3.04658616      -2.33739209       1.01732980        1 
H       3.23255591       1.68421930       0.70419491        1 
H       2.40948601       2.29416765       2.17579337        1 
C      -1.32157072      -2.23941717       1.33187278        6 
H      -2.15787051      -2.24684183       2.03457050        1 
H      -1.30571689      -3.18249149       0.78430161        1 
H      -0.39461248      -2.16168768       1.90356263        1 
C      -1.71750672       2.50942241       0.46593234        6 
H      -2.62870336       2.62928624       1.05610347        1 
H      -0.86564451       2.80520430       1.07466323        1 
H      -1.78230134       3.17518828      -0.39969747        1 
