35
Lattice="0.0 0.0 0.0 0.0 0.0 0.0 0.0 0.0 0.0" Properties=species:S:1:pos:R:3:Z:I:1 pbc="F F F"
C       0.22814943       0.73915996       0.59670018        6 
C       0.33044057      -0.83647560       0.63618012        6 
C      -1.06811047       1.24820307       0.00412812        6 
C      -0.75547339      -1.50543410      -0.19465330        6 
O      -1.90259048       1.65841502       0.98711525        8 
O      -1.34798676       1.31035392      -1.16724932        8 
O      -1.90808891      -1.53116015       0.52254359        8 
O      -0.67317888      -1.92745457      -1.31660415        8 
C      -3.06660563      -2.03000796      -0.17153732        6 
C      -3.20167074       2.10670304       0.56270027        6 
C       1.55269585       1.11873122      -0.16082570        6 
C       2.67487719       1.05646632       0.90537714        6 
C       2.75574992      -0.46850216       1.16987865        6 
C       1.77855387      -1.04023430       0.09767150        6 
O       1.83789001      -0.05039889      -0.94335528        8 
H       0.26165011       1.11658863       1.61774762        1 
H       0.21581308      -1.19016826       1.66128503        1 
H      -2.90891740      -3.06167628      -0.48918660        1 
H      -3.73716347       1.29760575       0.06303076        1 
H       3.60224074       1.43258014       0.46926655        1 
H       2.45209376       1.64875021       1.79522152        1 
H       3.76174260      -0.85323490       0.99601209        1 
H       2.46420934      -0.75050863       2.18438416        1 
H      -3.88181448      -1.97175441       0.54668911        1 
H      -3.27605687      -1.41353888      -1.04756235        1 
H      -3.11295325       2.95258978      -0.12056137        1 
H      -3.71912111       2.40085896       1.47318500        1 
C       2.15273605      -2.41291161      -0.42048700        6 
H       3.19476949      -2.40683493      -0.74817491        1 
H       2.05052495      -3.15521122       0.37713067        1 
H       1.51914642      -2.70256814      -1.25553986        1 
C       1.53683731       2.35901750      -1.02536118        6 
H       2.52601627       2.51259202      -1.46219326        1 
H       0.80563973       2.26486592      -1.82696495        1 
H       1.28766388       3.23795976      -0.42332558        1 
