35
Lattice="0.0 0.0 0.0 0.0 0.0 0.0 0.0 0.0 0.0" Properties=species:S:1:pos:R:3:Z:I:1 pbc="F F F"
C      -0.74651858       0.12248855      -0.79642636        6 
C       0.73790824      -0.22653947      -0.55615771        6 
C      -1.26114346       1.22947988       0.12716263        6 
C       1.75416629       0.89894354      -0.54374916        6 
O      -2.58705776       1.42832461      -0.07882271        8 
O      -0.60462612       1.94498150       0.83452759        8 
O       2.98706032       0.40460261      -0.26653212        8 
O       1.55818494       2.05207555      -0.82175299        8 
C       4.06380455       1.35888572      -0.28623172        6 
C      -3.18247799       2.50494207       0.66635027        6 
C      -1.35968825      -1.25379911      -0.29722906        6 
C      -0.70886376      -2.45157665      -1.06972436        6 
C       0.61705444      -2.67553318      -0.28888755        6 
C       0.66450493      -1.37446020       0.53656412        6 
O      -0.70476253      -1.31097859       0.98705775        8 
H      -0.98506943       0.37042555      -1.83071440        1 
H       1.05975271      -0.73154588      -1.47556681        1 
H       3.88324127       2.15210379       0.44046938        1 
H      -2.70250637       3.45213472       0.41599445        1 
H      -1.35990169      -3.32476605      -1.02324187        1 
H      -0.55281787      -2.21700641      -2.12567503        1 
H       0.54254907      -3.53360254       0.38265013        1 
H       1.49195463      -2.80838798      -0.92922097        1 
H       4.95633006       0.79439561      -0.02424814        1 
H       4.16636661       1.79974301      -1.27921304        1 
H      -3.08548808       2.32770816       1.73876939        1 
H      -4.23041940       2.51539487       0.37340940        1 
C       1.59848353      -1.32438234       1.71975477        6 
H       1.34134572      -2.13027992       2.41144853        1 
H       2.63283938      -1.44362739       1.39907489        1 
H       1.50559814      -0.37164969       2.24483516        1 
C      -2.85916045      -1.40284108      -0.14198302        6 
H      -3.07995038      -2.41790548       0.19644183        1 
H      -3.26980982      -0.69842170       0.57636291        1 
H      -3.35830576      -1.23989014      -1.10027186        1 
