35
Lattice="0.0 0.0 0.0 0.0 0.0 0.0 0.0 0.0 0.0" Properties=species:S:1:pos:R:3:Z:I:1 pbc="F F F"
C      -0.48532408       0.76636849      -0.82165956        6 
C      -0.31520302      -0.79755639      -0.88871008        6 
C       0.74484581       1.62951574      -0.63247123        6 
C       1.10433422      -1.26638509      -0.59929625        6 
O       1.51508945       1.24188516       0.40062163        8 
O       0.98540501       2.59892222      -1.31210011        8 
O       1.33890207      -1.58993367       0.67887541        8 
O       1.94018600      -1.34863656      -1.47051468        8 
C       2.69491755      -1.94236040       0.99703857        6 
C       2.69969482       2.02399044       0.63716075        6 
C      -1.56180382       0.91764633       0.32855641        6 
C      -2.93177818       0.63149433      -0.32617486        6 
C      -2.81175207      -0.88616485      -0.61278519        6 
C      -1.45849772      -1.24868294       0.07633962        6 
O      -1.36440052      -0.26218209       1.12034022        8 
H      -0.90699939       1.12403577      -1.75933475        1 
H      -0.50390559      -1.13179994      -1.90913271        1 
H       3.36497899      -1.11856063       0.74632789        1 
H       2.43897173       3.06768873       0.81764759        1 
H      -3.72421432       0.83570345       0.39654432        1 
H      -3.11647058       1.23718917      -1.21537011        1 
H      -3.62527978      -1.44788935      -0.15112593        1 
H      -2.80674460      -1.12709863      -1.67803440        1 
H       2.70053443      -2.13042953       2.06839222        1 
H       3.00247790      -2.83254882       0.44614932        1 
H       3.36908904       1.96206871      -0.22199365        1 
H       3.16253376       1.58642436       1.51907158        1 
C      -1.41898168      -2.65827689       0.62846172        6 
H      -2.30229122      -2.83330946       1.24671107        1 
H      -1.43191152      -3.38015239      -0.19377176        1 
H      -0.52893021      -2.82658016       1.22958347        1 
C      -1.48194200       2.16464640       1.17936069        6 
H      -2.28430846       2.16175283       1.92037192        1 
H      -0.52760317       2.21507505       1.70540377        1 
H      -1.58760479       3.05626001       0.55614935        1 
