35
Lattice="0.0 0.0 0.0 0.0 0.0 0.0 0.0 0.0 0.0" Properties=species:S:1:pos:R:3:Z:I:1 pbc="F F F"
C      -0.60251131       0.52981267      -0.80117603        6 
C       0.09506657      -0.85739666      -0.60324754        6 
C       0.12914602       1.84643239      -0.62678036        6 
C       1.39176728      -0.90041520       0.19291439        6 
O       1.13495474       1.81970778       0.25380157        8 
O      -0.20139718       2.84272747      -1.23039988        8 
O       2.41596725      -1.23423122      -0.63638590        8 
O       1.54146791      -0.69042255       1.36647150        8 
C       3.71848655      -1.28566429      -0.02937445        6 
C       1.82843252       3.06012183       0.48003183        6 
C      -1.89302961       0.38508149       0.11562439        6 
C      -2.92999080      -0.38584814      -0.73310844        6 
C      -2.25502311      -1.77973581      -0.82273763        6 
C      -1.04918620      -1.62397392       0.15544368        6 
O      -1.50460967      -0.61262505       1.06490997        8 
H      -0.93818061       0.58887958      -1.83663037        1 
H       0.29966805      -1.31041609      -1.57220917        1 
H       3.74398096      -2.03407648       0.76443620        1 
H       1.13849591       3.81812482       0.85340543        1 
H      -3.87285933      -0.43831799      -0.18506115        1 
H      -3.11995074       0.08077141      -1.70109577        1 
H      -2.92036747      -2.57163683      -0.47581344        1 
H      -1.92967035      -2.03852500      -1.83276323        1 
H       4.40319981      -1.55468204      -0.83096901        1 
H       3.97985688      -0.31242577       0.38941572        1 
H       2.28615443       3.41503895      -0.44462065        1 
H       2.58596427       2.82975995       1.22554576        1 
C      -0.66319385      -2.88949264       0.89056192        6 
H      -1.54180501      -3.31402227       1.38146428        1 
H      -0.27418204      -3.63089160       0.18633148        1 
H       0.09382836      -2.68806911       1.64745089        1 
C      -2.38452673       1.63000228       0.81615816        6 
H      -3.25413420       1.38573100       1.43017442        1 
H      -1.60938541       2.03935796       1.46812314        1 
H      -2.66772493       2.39474407       0.09041928        1 
