35
Lattice="0.0 0.0 0.0 0.0 0.0 0.0 0.0 0.0 0.0" Properties=species:S:1:pos:R:3:Z:I:1 pbc="F F F"
C      -0.65073656       0.56917638      -0.66966902        6 
C       0.30737835      -0.66099701      -0.59307886        6 
C      -0.25006008       1.78767720       0.15382830        6 
C       1.72864562      -0.44142528      -0.12086399        6 
O       0.11270012       2.79650530      -0.68073827        8 
O      -0.23193092       1.88472131       1.35010663        8 
O       2.55440061      -1.28024465      -0.79991930        8 
O       2.12037977       0.29982458       0.74248583        8 
C       3.93743691      -1.25413427      -0.40302892        6 
C       0.58283269       3.99353765      -0.03366242        6 
C      -1.96187789      -0.08407929      -0.10706414        6 
C      -2.42108248      -1.19073768      -1.10762548        6 
C      -1.49613487      -2.37738730      -0.72865360        6 
C      -0.53727308      -1.68961202       0.26979563        6 
O      -1.44088937      -0.84715725       0.99215752        8 
H      -0.77087520       0.89356919      -1.70246525        1 
H       0.40768959      -1.07355420      -1.59622816        1 
H       4.03855249      -1.53503061       0.64662347        1 
H       1.45796819       3.77054534       0.57846741        1 
H      -3.47265099      -1.43130421      -0.94451827        1 
H      -2.31065772      -0.87232719      -2.14668863        1 
H      -2.05128528      -3.16190576      -0.21000219        1 
H      -0.97953990      -2.82765451      -1.57849323        1 
H       4.43681006      -1.97770713      -1.04369169        1 
H       4.35700473      -0.25765033      -0.54849862        1 
H      -0.19782009       4.41853012       0.59934376        1 
H       0.83791827       4.67865246      -0.83941446        1 
C       0.22511645      -2.59281135       1.21088956        6 
H      -0.47710720      -3.21125118       1.77384947        1 
H       0.89625843      -3.25034525       0.65241385        1 
H       0.81381836      -2.00748124       1.92024688        1 
C      -3.05917989       0.85311605       0.34745035        6 
H      -3.90327223       0.27375942       0.72763857        1 
H      -2.70838272       1.51387627       1.13921369        1 
H      -3.41030478       1.45803601      -0.49378557        1 
