35
Lattice="0.0 0.0 0.0 0.0 0.0 0.0 0.0 0.0 0.0" Properties=species:S:1:pos:R:3:Z:I:1 pbc="F F F"
C      -0.30755590       0.73541764      -0.83297195        6 
C      -0.14198367      -0.81465453      -0.65040326        6 
C       0.83935415       1.50079347      -0.14526399        6 
C       1.27391696      -1.35965741      -0.77739120        6 
O       0.44380228       2.51671162       0.64015166        8 
O       2.00562549       1.25435419      -0.33070563        8 
O       1.70825755      -2.02921879       0.30568140        8 
O       1.93965041      -1.19073354      -1.76700308        8 
C       3.06213912      -2.51764893       0.23539356        6 
C       1.49530235       3.25583867       1.28943851        6 
C      -1.71696003       0.89097197      -0.17103949        6 
C      -2.73280006      -0.04415292      -0.91611844        6 
C      -2.49369499      -1.41377272      -0.23209747        6 
C      -1.17276661      -1.12255963       0.51217183        6 
O      -1.46826676       0.18161480       1.06120513        8 
H      -0.27941640       1.00886736      -1.88988867        1 
H      -0.57638108      -1.24744356      -1.55717692        1 
H       3.75200171      -1.68580404       0.08996492        1 
H       2.14272587       3.73050886       0.55068445        1 
H      -3.75162484       0.31281912      -0.76511286        1 
H      -2.55100750      -0.06226799      -1.99369454        1 
H      -3.27791471      -1.63453828       0.49516083        1 
H      -2.42091920      -2.25149748      -0.92918874        1 
H       3.24099941      -3.00863400       1.18964159        1 
H       3.17111268      -3.22530458      -0.58796456        1 
H       2.09260558       2.59319270       1.91682067        1 
H       0.98767088       4.00378413       1.89464048        1 
C      -0.81400469      -2.07956222       1.62437018        6 
H      -1.65987044      -2.15645507       2.31223889        1 
H      -0.59407416      -3.07102314       1.22497068        1 
H       0.06142998      -1.73485451       2.17177487        1 
C      -2.30449200       2.26913696       0.06827565        6 
H      -3.30550352       2.15954400       0.49168907        1 
H      -1.69829938       2.86577079       0.74028571        1 
H      -2.39588443       2.79837189      -0.88496534        1 
