35
Lattice="0.0 0.0 0.0 0.0 0.0 0.0 0.0 0.0 0.0" Properties=species:S:1:pos:R:3:Z:I:1 pbc="F F F"
C       0.23988269       0.92143653       0.66343576        6 
C       0.35994476      -0.63077722       0.87390500        6 
C      -1.09519965       1.54381124       0.28338614        6 
C      -0.82681067      -1.48648099       0.46343181        6 
O      -2.13792932       0.73240108       0.52619446        8 
O      -1.22490338       2.68488321      -0.08956078        8 
O      -1.02198691      -1.50589949      -0.86889404        8 
O      -1.52081996      -2.08713654       1.24781244        8 
C      -2.16810765      -2.24061595      -1.32597128        6 
C      -3.45059684       1.27174758       0.28937934        6 
C       1.45154425       1.20421420      -0.31636450        6 
C       2.73091522       1.19140045       0.55963520        6 
C       2.85222994      -0.31209688       0.91468198        6 
C       1.68383787      -0.93154392       0.09494132        6 
O       1.57711400      -0.04111701      -1.02498428        8 
H       0.45415066       1.41067265       1.61846266        1 
H       0.48348344      -0.84726608       1.93451189        1 
H      -3.08141750      -1.81671014      -0.90453816        1 
H      -3.57431773       1.51735891      -0.76646213        1 
H       3.57960670       1.52409551      -0.04070100        1 
H       2.65684625       1.84696232       1.42961951        1 
H       3.80392842      -0.72752333       0.57869099        1 
H       2.75836940      -0.51919810       1.98288851        1 
H      -2.16366490      -2.14087092      -2.40939092        1 
H      -2.09563915      -3.29011274      -1.03603401        1 
H      -3.60779187       2.16955271       0.88853529        1 
H      -4.13999561       0.48476835       0.58690429        1 
C       1.91331262      -2.35914999      -0.35327947        6 
H       2.87074622      -2.43250154      -0.87352210        1 
H       1.94093221      -3.02617095       0.51282339        1 
H       1.12614988      -2.69130609      -1.02923124        1 
C       1.36351449       2.34775360      -1.30180542        6 
H       2.27594185       2.35859401      -1.90288373        1 
H       0.50706847       2.23612513      -1.96563658        1 
H       1.26518831       3.30246904      -0.78447686        1 
