35
Lattice="0.0 0.0 0.0 0.0 0.0 0.0 0.0 0.0 0.0" Properties=species:S:1:pos:R:3:Z:I:1 pbc="F F F"
C      -0.75109520       0.09374347      -0.78383543        6 
C       0.74172395      -0.23427382      -0.56977590        6 
C      -1.26930503       1.19676626       0.13594029        6 
C       1.72219747       0.92172181      -0.53017589        6 
O      -2.55901599       1.48430015      -0.17225368        8 
O      -0.63996420       1.81783259       0.94929900        8 
O       2.97336319       0.46372869      -0.27950160        8 
O       1.48180440       2.07599846      -0.76857033        8 
C       4.01483026       1.45691452      -0.27073826        6 
C      -3.16154910       2.54866121       0.58475339        6 
C      -1.34684068      -1.27988225      -0.26232698        6 
C      -0.72631017      -2.47169286      -1.06421979        6 
C       0.63121310      -2.69134872      -0.33923435        6 
C       0.70199453      -1.40151963       0.50388615        6 
O      -0.65159307      -1.34772662       0.99743242        8 
H      -1.01386819       0.32228493      -1.81620393        1 
H       1.06772026      -0.71263868      -1.50178358        1 
H       3.81016901       2.21576897       0.48565622        1 
H      -2.60669630       3.47727709       0.44305192        1 
H      -1.37122419      -3.34807244      -0.99287894        1 
H      -0.61395209      -2.23192950      -2.12457813        1 
H       0.59170440      -3.55917331       0.32266863        1 
H       1.48054179      -2.80832384      -1.01589454        1 
H       4.92891782       0.91616328      -0.03448683        1 
H       4.09422050       1.93692926      -1.24755578        1 
H      -3.17806839       2.30102278       1.64760739        1 
H      -4.17428169       2.64255452       0.19815164        1 
C       1.67150061      -1.37197800       1.65923432        6 
H       1.43807482      -2.19347373       2.34081706        1 
H       2.69666660      -1.47968131       1.30627543        1 
H       1.58890167      -0.43103709       2.20645815        1 
C      -2.84105630      -1.40830018      -0.05515786        6 
H      -3.06229743      -2.41106171       0.31777611        1 
H      -3.21882038      -0.68066844       0.66000707        1 
H      -3.37087002      -1.26302352      -0.99958181        1 
