35
Lattice="0.0 0.0 0.0 0.0 0.0 0.0 0.0 0.0 0.0" Properties=species:S:1:pos:R:3:Z:I:1 pbc="F F F"
C      -0.54778462       0.56489493       0.59309975        6 
C       0.76264701      -0.20752998       0.93662411        6 
C      -1.80509356      -0.20981219       0.25077827        6 
C       0.91520813      -1.65669822       0.50255721        6 
O      -2.86645516       0.40454715       0.83931657        8 
O      -1.93018593      -1.17641959      -0.45592128        8 
O       0.71819510      -1.85053872      -0.80279125        8 
O       1.30005609      -2.52069379       1.26043601        8 
C       0.82951125      -3.20246720      -1.27490246        6 
C      -4.15944842      -0.15621109       0.54910835        6 
C      -0.05807802       1.58370773      -0.52122253        6 
C       0.54869545       2.77731953       0.25225799        6 
C       1.79714878       2.10643996       0.88730891        6 
C       1.80536608       0.70849667       0.19534796        6 
O       1.12378134       0.96360195      -1.04086541        8 
H      -0.82365406       1.14626393       1.47189133        1 
H       0.93569351      -0.21378575       2.01168336        1 
H       0.08162773      -3.83223123      -0.79078332        1 
H      -4.20631654      -1.19727005       0.87193041        1 
H       0.83701833       3.55668991      -0.45647136        1 
H      -0.14000269       3.21209965       0.97893363        1 
H       2.71215227       2.65015929       0.64711855        1 
H       1.73575081       2.02229657       1.97450032        1 
H       0.64425767      -3.14776716      -2.34512394        1 
H       1.82519805      -3.60087107      -1.07277661        1 
H      -4.36740314      -0.10369697      -0.52098304        1 
H      -4.86975423       0.45027033       1.10694087        1 
C       3.17868708       0.12091103      -0.04228356        6 
H       3.80294504       0.84123905      -0.57543506        1 
H       3.65726589      -0.11557480       0.91126617        1 
H       3.12200120      -0.79077547      -0.63808474        1 
C      -1.02991852       1.90911754      -1.63078732        6 
H      -0.55694493       2.57743832      -2.35346890        1 
H      -1.34071199       1.00045742      -2.14989694        1 
H      -1.91583149       2.40672651      -1.22802850        1 
