35
Lattice="0.0 0.0 0.0 0.0 0.0 0.0 0.0 0.0 0.0" Properties=species:S:1:pos:R:3:Z:I:1 pbc="F F F"
C       0.27601575       0.83884249       0.65950888        6 
C       0.21620748      -0.73045533       0.53885418        6 
C      -0.70085039       1.58250674      -0.26011604        6 
C      -1.12040520      -1.36603342       0.20601807        6 
O      -1.96248689       1.13154222      -0.08557019        8 
O      -0.44146814       2.47711363      -1.02304154        8 
O      -1.93788463      -1.26436946       1.28040237        8 
O      -1.39984611      -2.02057435      -0.76763147        8 
C      -3.25209667      -1.81936863       1.12505997        6 
C      -2.97328098       1.73323481      -0.91597084        6 
C       1.76760401       1.05679487       0.25718930        6 
C       2.66767592       0.28150151       1.27754246        6 
C       2.63751073      -1.16295530       0.72025504        6 
C       1.50108686      -1.04188412      -0.32049262        6 
O       1.82320986       0.22891732      -0.92100851        8 
H       0.05518606       1.15486301       1.68196097        1 
H       0.39496588      -1.10990846       1.54798421        1 
H      -3.19772481      -2.88692949       0.90586514        1 
H      -2.77719082       1.51615327      -1.96692841        1 
H       3.67571344       0.69701572       1.27919669        1 
H       2.28073944       0.35953655       2.29697751        1 
H       3.56973233      -1.40957558       0.20811098        1 
H       2.44417072      -1.92803824       1.47521486        1 
H      -3.75546825      -1.64841647       2.07435505        1 
H      -3.78472486      -1.31568782       0.31610158        1 
H      -2.99837995       2.81341741      -0.76803721        1 
H      -3.91139300       1.28092171      -0.60172423        1 
C       1.45301843      -2.12278723      -1.37541936        6 
H       2.43127754      -2.18718151      -1.85780979        1 
H       1.21980641      -3.09032922      -0.92570928        1 
H       0.69259452      -1.90983513      -2.12359134        1 
C       2.26910472       2.45996752      -0.01991575        6 
H       3.33374587       2.41400046      -0.26097995        1 
H       1.73232356       2.92604345      -0.83999228        1 
H       2.15032825       3.08049256       0.87363113        1 
