35
Lattice="0.0 0.0 0.0 0.0 0.0 0.0 0.0 0.0 0.0" Properties=species:S:1:pos:R:3:Z:I:1 pbc="F F F"
C      -0.22672421       0.56799660      -0.74906003        6 
C       0.06859434      -0.92683423      -0.50025276        6 
C       0.49137924       1.50499539       0.22064464        6 
C       1.47988777      -1.46028527      -0.33400039        6 
O       0.17968437       2.79393504      -0.05930910        8 
O       1.31416574       1.20253280       1.04436545        8 
O       2.42753798      -0.56144729      -0.64356136        8 
O       1.71651666      -2.63849218      -0.18761087        8 
C       3.78066117      -1.04894135      -0.66292184        6 
C       0.83397451       3.78748641       0.74911047        6 
C      -1.76374718       0.54186122      -0.34312080        6 
C      -2.52424949      -0.52007492      -1.20800784        6 
C      -2.22254733      -1.84445457      -0.45128983        6 
C      -1.08742346      -1.37287934       0.47988647        6 
O      -1.63555192      -0.11548683       0.93197077        8 
H      -0.04954056       0.89580806      -1.77310470        1 
H      -0.15889437      -1.41568453      -1.45478380        1 
H       3.89214270      -1.84325622      -1.40289620        1 
H       1.91680993       3.71941915       0.63387793        1 
H      -3.59088398      -0.29545754      -1.22458220        1 
H      -2.17605396      -0.52568258      -2.24409369        1 
H      -3.07874716      -2.16206983       0.14736580        1 
H      -1.92599842      -2.66968702      -1.10241594        1 
H       4.39245866      -0.18827243      -0.92380308        1 
H       4.05831238      -1.43062648       0.32025288        1 
H       0.57751704       3.65317324       1.80119418        1 
H       0.46833040       4.74523899       0.38457800        1 
C      -0.72919274      -2.24887579       1.65312775        6 
H      -1.62030949      -2.42755776       2.25979238        1 
H      -0.32864560      -3.20210451       1.30822947        1 
H       0.02660623      -1.76471912       2.27431398        1 
C      -2.51899888       1.84664525      -0.20171844        6 
H      -3.55876563       1.63044681       0.05421231        1 
H      -2.09526040       2.48095102       0.57311123        1 
H      -2.49854803       2.40089517      -1.14284690        1 
