35
Lattice="0.0 0.0 0.0 0.0 0.0 0.0 0.0 0.0 0.0" Properties=species:S:1:pos:R:3:Z:I:1 pbc="F F F"
C      -0.86520436      -0.01586511      -0.81459646        6 
C       0.63961567      -0.45565215      -0.71061015        6 
C      -1.09823962       1.48739830      -0.70069050        6 
C       1.59754693       0.56772231      -0.11425040        6 
O      -1.48336319       1.90091172       0.51445145        8 
O      -0.95127949       2.22463090      -1.64670360        8 
O       2.84994966       0.06189987      -0.07545499        8 
O       1.35416880       1.71222447       0.17310679        8 
C       3.87906047       0.95949668       0.38086386        6 
C      -1.55482896       3.32679873       0.69309235        6 
C      -1.57996054      -1.03361367       0.14011128        6 
C      -1.70198068      -2.35552029      -0.66362413        6 
C      -0.22886552      -2.82525127      -0.72045026        6 
C       0.48360793      -1.76360167       0.16699757        6 
O      -0.54649935      -1.36598448       1.08558830        8 
H      -1.18775866      -0.21825785      -1.83737540        1 
H       1.05011594      -0.70100808      -1.69119352        1 
H       3.67607624       1.28578199       1.40201038        1 
H      -2.27250209       3.76626006      -0.00120483        1 
H      -2.31902768      -3.06061058      -0.10390436        1 
H      -2.15860290      -2.21150076      -1.64476353        1 
H      -0.10777959      -3.81682842      -0.28133932        1 
H       0.18391228      -2.85751428      -1.73096482        1 
H       4.80230774       0.38592270       0.33841872        1 
H       3.93661039       1.83293255      -0.27021951        1 
H      -0.56938766       3.76340752       0.52769795        1 
H      -1.87501235       3.47328152       1.72245925        1 
C       1.67022081      -2.30371410       0.93687940        6 
H       1.35372468      -3.19816947       1.47836734        1 
H       2.48502031      -2.57045152       0.26210901        1 
H       2.04670815      -1.58059562       1.65957717        1 
C      -2.85177168      -0.62219113       0.84941955        6 
H      -3.24652169      -1.47541925       1.40615742        1 
H      -2.67082157       0.20077064       1.53564861        1 
H      -3.60692550      -0.30863632       0.12303140        1 
