35
Lattice="0.0 0.0 0.0 0.0 0.0 0.0 0.0 0.0 0.0" Properties=species:S:1:pos:R:3:Z:I:1 pbc="F F F"
C      -0.66894217       0.19713392      -0.69371835        6 
C       0.64207028      -0.66219806      -0.58052039        6 
C      -0.51422234       1.64837111      -0.25308401        6 
C       1.80323817       0.02367310       0.12271694        6 
O      -1.69238306       2.22798033       0.03591315        8 
O       0.52380733       2.26404243      -0.28501943        8 
O       2.74598655       0.37598827      -0.77776697        8 
O       1.93072096       0.16532231       1.31289318        8 
C       3.85501338       1.12579734      -0.25435593        6 
C      -1.64563916       3.63184809       0.35813959        6 
C      -1.71451562      -0.74761331       0.02375763        6 
C      -2.00803345      -1.90489793      -0.97300667        6 
C      -0.71178740      -2.74634205      -0.87957982        6 
C       0.11600356      -1.93811924       0.15722436        6 
O      -0.90461712      -1.39957739       1.01294415        8 
H      -0.94764255       0.29391136      -1.74772531        1 
H       0.99852851      -0.92051026      -1.57693746        1 
H       4.37775552       0.55513438       0.51490529        1 
H      -1.26685672       4.20423211      -0.48981286        1 
H      -2.87238365      -2.47054847      -0.62136303        1 
H      -2.23187717      -1.54463410      -1.97934092        1 
H      -0.91391770      -3.74500208      -0.48828861        1 
H      -0.18817249      -2.85846040      -1.83092165        1 
H       4.50765357       1.31165114      -1.10486625        1 
H       3.49727397       2.06562356       0.16870268        1 
H      -1.00330132       3.80097710       1.22303009        1 
H      -2.67345859       3.90887446       0.58175217        1 
C       1.11348633      -2.75647143       0.94837775        6 
H       0.60731689      -3.61526160       1.39518265        1 
H       1.90289510      -3.13047649       0.28935835        1 
H       1.56726011      -2.16217148       1.73950650        1 
C      -2.95531490      -0.17638333       0.67671156        6 
H      -3.53172081      -1.00166960       1.10168868        1 
H      -2.70574133       0.52216391       1.47304417        1 
H      -3.57560374       0.34498601      -0.05434716        1 
