35
Lattice="0.0 0.0 0.0 0.0 0.0 0.0 0.0 0.0 0.0" Properties=species:S:1:pos:R:3:Z:I:1 pbc="F F F"
C      -0.30121713       0.77639477      -0.87534853        6 
C      -0.50146858      -0.78830797      -0.81386352        6 
C       1.14602626       1.16797159      -0.59994901        6 
C       0.75446500      -1.61114698      -0.61450187        6 
O       1.36555854       1.73608209       0.59246415        8 
O       2.02337010       0.95423304      -1.40477412        8 
O       1.36997223      -1.34261639       0.55557903        8 
O       1.17109353      -2.40911186      -1.41731988        8 
C       2.62283085      -2.01486979       0.77539481        6 
C       2.73904373       2.02690729       0.90764448        6 
C      -1.44309330       1.24852504       0.07976671        6 
C      -2.79312250       0.92608061      -0.63651496        6 
C      -2.94886236      -0.59279658      -0.37931316        6 
C      -1.60207554      -0.91983218       0.30562903        6 
O      -1.39246913       0.24898236       1.11465854        8 
H      -0.47944560       1.11512947      -1.89723026        1 
H      -0.89795322      -1.14197137      -1.76410754        1 
H       3.34132037      -1.72377614       0.00745391        1 
H       3.15982482       2.72801641       0.18564407        1 
H      -3.60076276       1.49556543      -0.17428497        1 
H      -2.76941042       1.18765584      -1.69667254        1 
H      -3.76512259      -0.79428434       0.31705519        1 
H      -3.12034418      -1.18000064      -1.28363660        1 
H       2.95511697      -1.69217243       1.75991332        1 
H       2.48756748      -3.09700187       0.75167882        1 
H       3.32729667       1.10842401       0.90133581        1 
H       2.71946391       2.46347909       1.90364192        1 
C      -1.58638047      -2.17715355       1.14617813        6 
H      -2.41675019      -2.16040939       1.85551594        1 
H      -1.69588741      -3.05897574       0.50879560        1 
H      -0.65406606      -2.26011228       1.70451686        1 
C      -1.39018812       2.64929806       0.65361177        6 
H      -2.29684255       2.83874046       1.23261084        1 
H      -0.52383853       2.78462596       1.29472598        1 
H      -1.34493843       3.38396052      -0.15608576        1 
