35
Lattice="0.0 0.0 0.0 0.0 0.0 0.0 0.0 0.0 0.0" Properties=species:S:1:pos:R:3:Z:I:1 pbc="F F F"
C       0.39297718       0.90138833       0.56230732        6 
C       0.03477715      -0.60042640       0.71836881        6 
C      -0.74618885       1.84956558       0.23498952        6 
C      -1.08810272      -1.05394621      -0.19713395        6 
O      -1.86987559       1.46066398       0.88097124        8 
O      -0.65369014       2.90071517      -0.34684992        8 
O      -1.55229236      -2.26090511       0.19968427        8 
O      -1.54332816      -0.44613812      -1.13239823        8 
C      -2.59995938      -2.83226899      -0.60488454        6 
C      -3.03407023       2.27763921       0.67043131        6 
C       1.69265142       0.86324138      -0.32722318        6 
C       2.85632298       0.62872212       0.66516974        6 
C       2.52365710      -0.79538467       1.18423852        6 
C       1.38533703      -1.23734340       0.21327968        6 
O       1.62059185      -0.43562090      -0.95265136        8 
H       0.68562473       1.26313867       1.55508345        1 
H      -0.20377081      -0.89011399       1.74063194        1 
H      -2.24952713      -3.00177717      -1.62449883        1 
H      -3.30979885       2.26844974      -0.38526604        1 
H       3.79976607       0.63723226       0.11614373        1 
H       2.90879443       1.38578808       1.45075595        1 
H       3.37795645      -1.46844015       1.09785424        1 
H       2.19548282      -0.81077551       2.22618091        1 
H      -2.85116510      -3.77605000      -0.12577943        1 
H      -3.46680377      -2.17044066      -0.63027200        1 
H      -2.84882871       3.30456040       0.98871819        1 
H      -3.81916567       1.82509304       1.27268882        1 
C       1.39083303      -2.70716590      -0.14647854        6 
H       2.38836861      -2.98951210      -0.48999848        1 
H       1.13020651      -3.31851736       0.72020528        1 
H       0.68007591      -2.92490654      -0.94398326        1 
C       1.90863808       1.93231476      -1.37049810        6 
H       2.83799318       1.72244004      -1.90643752        1 
H       1.08449962       1.95720150      -2.08253415        1 
H       1.97848877       2.91661528      -0.90603153        1 
