35
Lattice="0.0 0.0 0.0 0.0 0.0 0.0 0.0 0.0 0.0" Properties=species:S:1:pos:R:3:Z:I:1 pbc="F F F"
C      -0.06681230       0.76054914       0.76369300        6 
C       0.72630491      -0.58041812       0.86454177        6 
C      -1.57219320       0.54976164       0.78650086        6 
C       0.06552826      -1.81443858       0.27715589        6 
O      -2.26082468       1.28729933      -0.09782675        8 
O      -2.10037590      -0.17744498       1.59494350        8 
O      -0.84876025      -1.52496664      -0.66585021        8 
O       0.40482324      -2.94077257       0.55150085        8 
C      -1.48014506      -2.64491876      -1.30997166        6 
C      -3.69133241       1.12137147      -0.07510764        6 
C       0.72316307       1.53484838      -0.36505026        6 
C       1.93619477       2.17292880       0.35939148        6 
C       2.75743724       0.91674204       0.74666380        6 
C       1.98816572      -0.21397465       0.00141729        6 
O       1.37294359       0.47768527      -1.09623865        8 
H       0.09054460       1.30143167       1.70328965        1 
H       0.99933391      -0.83495688       1.88717860        1 
H      -2.01770514      -3.24946905      -0.57790808        1 
H      -4.09515760       1.40149891       0.89865089        1 
H       2.48426128       2.79608247      -0.34961512        1 
H       1.64960204       2.79539059       1.20979615        1 
H       3.78428866       0.97806375       0.38277201        1 
H       2.79751171       0.73673467       1.82301817        1 
H      -2.16891504      -2.21211210      -2.03225058        1 
H      -0.73638718      -3.26381942      -1.81393917        1 
H      -3.95386546       0.08389098      -0.28702662        1 
H      -4.06980502       1.78058040      -0.85337536        1 
C       2.84941551      -1.35343678      -0.49463984        6 
H       3.68019833      -0.95235019      -1.07925698        1 
H       3.25174176      -1.92151617       0.34675522        1 
H       2.28313478      -2.04030581      -1.12365795        1 
C      -0.00164138       2.45366761      -1.32219314        6 
H       0.72876995       2.90455907      -1.99858178        1 
H      -0.73951790       1.90948519      -1.90842195        1 
H      -0.51654038       3.24993250      -0.78129417        1 
