35
Lattice="0.0 0.0 0.0 0.0 0.0 0.0 0.0 0.0 0.0" Properties=species:S:1:pos:R:3:Z:I:1 pbc="F F F"
C      -0.46749137       0.76943257      -0.80770752        6 
C      -0.31578013      -0.79228380      -0.89307056        6 
C       0.74442125       1.66101901      -0.62989291        6 
C       1.07292310      -1.33149618      -0.57614922        6 
O       1.64449878       1.19805364       0.25352454        8 
O       0.85361190       2.72829434      -1.18766128        8 
O       1.30792776      -1.52627554       0.72828652        8 
O       1.87227122      -1.60137793      -1.44385270        8 
C       2.63446650      -1.95770321       1.06831050        6 
C       2.79465168       2.03212206       0.48479696        6 
C      -1.53217231       0.92413928       0.35964051        6 
C      -2.91404947       0.68119947      -0.28623624        6 
C      -2.82002834      -0.82896534      -0.62077733        6 
C      -1.47485191      -1.23632149       0.05931726        6 
O      -1.35586347      -0.27577277       1.12375880        8 
H      -0.90908027       1.13343698      -1.73395075        1 
H      -0.50005349      -1.11466541      -1.91775608        1 
H       3.36618169      -1.22383600       0.72621569        1 
H       2.48631675       3.01757499       0.83643789        1 
H      -3.69309370       0.87410324       0.45410497        1 
H      -3.10105783       1.31758132      -1.15310525        1 
H      -3.64564883      -1.39109343      -0.18165886        1 
H      -2.81353659      -1.03401724      -1.69338998        1 
H       2.64445311      -2.03338966       2.15348749        1 
H       2.85740694      -2.92306178       0.61111827        1 
H       3.37348926       2.14140751      -0.43335882        1 
H       3.37518793       1.51675788       1.24674215        1 
C      -1.46081788      -2.65818234       0.57932812        6 
H      -2.33588087      -2.82555980       1.21125587        1 
H      -1.50696884      -3.36045551      -0.25828359        1 
H      -0.56474965      -2.86166464       1.16144661        1 
C      -1.41138701       2.14913299       1.23618435        6 
H      -2.18988126       2.13524518       2.00211944        1 
H      -0.44045326       2.17721109       1.73433135        1 
H      -1.52402766       3.05684008       0.63899886        1 
