35
Lattice="0.0 0.0 0.0 0.0 0.0 0.0 0.0 0.0 0.0" Properties=species:S:1:pos:R:3:Z:I:1 pbc="F F F"
C       0.48266888       0.80242364       0.62631796        6 
C       0.02558250      -0.67945144       0.68372126        6 
C      -0.52791298       1.90590534       0.37746091        6 
C      -1.15318892      -1.03817022      -0.20203664        6 
O      -1.80074060       1.47555089       0.44237344        8 
O      -0.23120221       3.07428053       0.29327361        8 
O      -1.97613178      -1.89619827       0.45093628        8 
O      -1.33519626      -0.68525832      -1.33802856        8 
C      -3.11043684      -2.36531186      -0.29876290        6 
C      -2.82466330       2.47532220       0.29256042        6 
C       1.77727038       0.72928443      -0.28573756        6 
C       2.92853062       0.34726226       0.67380778        6 
C       2.49891438      -1.08722981       1.08893499        6 
C       1.31641272      -1.36945938       0.11042036        6 
O       1.60531680      -0.50870788      -0.99710143        8 
H       0.82630445       1.06475703       1.63229362        1 
H      -0.19274231      -1.00389014       1.69981228        1 
H      -2.78575277      -2.91059230      -1.18661258        1 
H      -2.72749598       2.97290886      -0.67294211        1 
H       3.86821669       0.33142750       0.11838623        1 
H       3.03474363       1.03949147       1.51131831        1 
H       3.29993734      -1.81077220       0.93093194        1 
H       2.18785274      -1.15993047       2.13374680        1 
H      -3.65416575      -3.02300736       0.37617522        1 
H      -3.73720670      -1.52656480      -0.60583199        1 
H      -2.75567973       3.21628988       1.09054726        1 
H      -3.76616960       1.93368762       0.34994356        1 
C       1.17355261      -2.80744484      -0.33801796        6 
H       2.12408866      -3.16768776      -0.73750055        1 
H       0.88761953      -3.44196722       0.50477369        1 
H       0.41820010      -2.90311642      -1.12013621        1 
C       2.03792264       1.85602855      -1.25449959        6 
H       2.94262674       1.63708642      -1.82687190        1 
H       1.20432733       1.96418688      -1.95027389        1 
H       2.16458247       2.80109002      -0.72630057        1 
