35
Lattice="0.0 0.0 0.0 0.0 0.0 0.0 0.0 0.0 0.0" Properties=species:S:1:pos:R:3:Z:I:1 pbc="F F F"
C      -0.70383183       0.60421308      -0.85507617        6 
C       0.01962406      -0.78396815      -0.79554790        6 
C       0.09376191       1.80642612      -0.38548047        6 
C       1.53384625      -0.63810612      -0.71032433        6 
O       0.80161080       1.55193029       0.73198423        8 
O       0.04444627       2.89065069      -0.91297391        8 
O       2.13418570      -1.44517222       0.17587136        8 
O       2.14182271       0.10825665      -1.44160960        8 
C       3.56922426      -1.34146875       0.24885791        6 
C       1.59997294       2.63531638       1.23647558        6 
C      -1.92961653       0.34036240       0.08739858        6 
C      -2.88453681      -0.63628994      -0.64971713        6 
C      -2.14316669      -1.98705106      -0.48544754        6 
C      -0.85181085      -1.55482174       0.26705918        6 
O      -1.34982673      -0.49300349       1.10201981        8 
H      -1.03169801       0.85177922      -1.86270243        1 
H      -0.10694415      -1.27392413      -1.76645189        1 
H       3.85949387      -0.32692140       0.52472019        1 
H       0.97324845       3.49753466       1.46944327        1 
H      -3.85447215      -0.64973707      -0.14980056        1 
H      -3.04825973      -0.34773029      -1.68994248        1 
H      -2.71404791      -2.67377056       0.14188855        1 
H      -1.93186299      -2.49260917      -1.42988615        1 
H       3.86960133      -2.05063605       1.01697760        1 
H       4.02081360      -1.59588216      -0.71086563        1 
H       2.35032884       2.92353917       0.49837309        1 
H       2.07205706       2.25135459       2.13827703        1 
C      -0.23660438      -2.64459050       1.11794136        6 
H      -1.01405482      -3.08457970       1.74713546        1 
H       0.18727406      -3.43054812       0.48877171        1 
H       0.55446624      -2.25123370       1.75099963        1 
C      -2.59425557       1.55622964       0.69395480        6 
H      -3.41418698       1.24314739       1.34408273        1 
H      -1.88979375       2.14090356       1.28819613        1 
H      -2.99751279       2.19906362      -0.09213690        1 
