35
Lattice="0.0 0.0 0.0 0.0 0.0 0.0 0.0 0.0 0.0" Properties=species:S:1:pos:R:3:Z:I:1 pbc="F F F"
C      -0.45162950       0.73284552      -0.77879421        6 
C      -0.22165786      -0.82962578      -0.81445537        6 
C       0.81627731       1.56258914      -0.86515874        6 
C       1.17060615      -1.20972596      -0.30117227        6 
O       1.27919893       1.97362960       0.33231199        8 
O       1.41176998       1.73258767      -1.89865976        8 
O       1.18448280      -1.83824922       0.88560894        8 
O       2.18090416      -0.91907997      -0.89537485        8 
C       2.48565597      -2.13232794       1.42600893        6 
C       2.56659692       2.62152232       0.30977069        6 
C      -1.52564684       0.87485382       0.36899494        6 
C      -2.88320788       0.64986828      -0.33701758        6 
C      -2.74184527      -0.83059297      -0.76587394        6 
C      -1.46040123      -1.28493850       0.01156884        6 
O      -1.40201723      -0.35506749       1.11130666        8 
H      -0.94333479       0.98280754      -1.72046691        1 
H      -0.25420515      -1.17819180      -1.84788789        1 
H       3.04533149      -1.20925498       1.58319919        1 
H       2.52609860       3.52919596      -0.29385454        1 
H      -3.68825036       0.77518702       0.38981694        1 
H      -3.05671445       1.33829507      -1.16679815        1 
H      -3.60086462      -1.42731269      -0.45741784        1 
H      -2.62446809      -0.95580184      -1.84516273        1 
H       2.29689067      -2.63176381       2.37377171        1 
H       3.04478998      -2.78121575       0.75055809        1 
H       3.31490579       1.94516910      -0.10525225        1 
H       2.78789812       2.86043524       1.34776812        1 
C      -1.54505043      -2.72368748       0.48010074        6 
H      -2.46753570      -2.86236157       1.04878576        1 
H      -1.57929049      -3.39008683      -0.38717517        1 
H      -0.70013731      -3.00095111       1.10277448        1 
C      -1.46918404       2.06711802       1.29642658        6 
H      -2.32823842       2.04326607       1.97099680        1 
H      -0.55293834       2.06404810       1.88250498        1 
H      -1.50707075       2.99743926       0.72333272        1 
