35
Lattice="0.0 0.0 0.0 0.0 0.0 0.0 0.0 0.0 0.0" Properties=species:S:1:pos:R:3:Z:I:1 pbc="F F F"
C       0.06800272       0.87955447       0.61465977        6 
C       0.51010439      -0.61364987       0.78892802        6 
C      -1.22177896       1.12824283      -0.15440014        6 
C      -0.44165614      -1.77110107       0.56075512        6 
O      -2.22364400       1.39595191       0.72258309        8 
O      -1.38180388       1.10962360      -1.34571559        8 
O      -1.46739417      -1.50410020      -0.25763045        8 
O      -0.25739842      -2.85691571       1.06255562        8 
C      -2.36964628      -2.58942474      -0.53931017        6 
C      -3.52325562       1.59279630       0.14056294        6 
C       1.31783362       1.45006648      -0.13598491        6 
C       2.53373162       1.38581507       0.83964979        6 
C       2.95990592      -0.10132265       0.73529835        6 
C       1.81174524      -0.67476888      -0.12390664        6 
O       1.59689238       0.38626685      -1.06181038        8 
H      -0.05508516       1.34050322       1.59445185        1 
H       0.82280572      -0.76201091       1.82265040        1 
H      -2.86069469      -2.92291350       0.37614055        1 
H      -3.82944125       0.70299242      -0.41218304        1 
H       3.32285614       2.05686857       0.49671088        1 
H       2.26088291       1.68748731       1.85351552        1 
H       3.90158902      -0.20600278       0.19244303        1 
H       3.06308599      -0.60267201       1.69944863        1 
H      -3.09354623      -2.18347051      -1.24232546        1 
H      -1.82997996      -3.42668110      -0.98344033        1 
H      -3.51586904       2.44797437      -0.53725058        1 
H      -4.19421785       1.77398121       0.97765506        1 
C       2.09126290      -1.97358726      -0.84251132        6 
H       2.99365368      -1.86821809      -1.44835746        1 
H       2.23477743      -2.78531278      -0.12739686        1 
H       1.26220590      -2.23621573      -1.50288515        1 
C       1.16028489       2.77502882      -0.85049904        6 
H       2.10077885       3.04028270      -1.33813335        1 
H       0.37663416       2.72675557      -1.60442956        1 
H       0.91609331       3.56170815      -0.13016922        1 
