35
Lattice="0.0 0.0 0.0 0.0 0.0 0.0 0.0 0.0 0.0" Properties=species:S:1:pos:R:3:Z:I:1 pbc="F F F"
C      -0.29090231       0.77792475      -0.84740681        6 
C      -0.44100758      -0.79506615      -0.77439810        6 
C       1.10595706       1.23448844      -0.42314321        6 
C       0.87387768      -1.55095403      -0.76229565        6 
O       1.15880530       1.89653283       0.74279857        8 
O       2.09151139       0.97050176      -1.07014411        8 
O       1.38869882      -1.70134783       0.47535419        8 
O       1.45238372      -1.88214742      -1.76612633        8 
C       2.71550721      -2.25907594       0.53410403        6 
C       2.47516356       2.25689788       1.20093213        6 
C      -1.51960079       1.19732262       0.01422219        6 
C      -2.80016236       0.70931220      -0.74208101        6 
C      -2.87926078      -0.78009989      -0.33176362        6 
C      -1.51256242      -0.96209766       0.36955741        6 
O      -1.41701320       0.26918941       1.11115975        8 
H      -0.38959905       1.10083511      -1.88530569        1 
H      -0.89031510      -1.11668108      -1.71421151        1 
H       3.40608061      -1.63512546      -0.03454847        1 
H       2.97122437       2.90289094       0.47550308        1 
H      -3.67282073       1.27018473      -0.40573370        1 
H      -2.71033874       0.85342805      -1.82125470        1 
H      -3.67693183      -0.94798001       0.39454831        1 
H      -3.02568439      -1.46549313      -1.16897800        1 
H       2.97768585      -2.27062549       1.58998699        1 
H       2.72305797      -3.27125413       0.12676770        1 
H       3.07745233       1.36051087       1.35548432        1 
H       2.31870033       2.77993574       2.14173722        1 
C      -1.41646770      -2.15913175       1.28839733        6 
H      -2.26838053      -2.16492873       1.97230338        1 
H      -1.43894008      -3.08506042       0.70641938        1 
H      -0.49507227      -2.13734034       1.86609842        1 
C      -1.63163498       2.63155602       0.48987856        6 
H      -2.56091137       2.75375509       1.05107914        1 
H      -0.79530579       2.91652694       1.12068303        1 
H      -1.66707095       3.30384765      -0.37286891        1 
