35
Lattice="0.0 0.0 0.0 0.0 0.0 0.0 0.0 0.0 0.0" Properties=species:S:1:pos:R:3:Z:I:1 pbc="F F F"
C      -0.47687175       0.76041512      -0.81496447        6 
C      -0.31133965      -0.80132760      -0.88984431        6 
C       0.73872085       1.65117700      -0.65784837        6 
C       1.08258087      -1.32063419      -0.56280372        6 
O       1.59962100       1.23814960       0.28801909        8 
O       0.88787454       2.67190926      -1.28819469        8 
O       1.31493479      -1.50077737       0.74392628        8 
O       1.88920206      -1.58677811      -1.42508409        8 
C       2.64556885      -1.91186976       1.09332625        6 
C       2.75891388       2.06550600       0.49671273        6 
C      -1.53834154       0.91452652       0.35294873        6 
C      -2.91973981       0.65852773      -0.28915693        6 
C      -2.81534145      -0.85269551      -0.61627117        6 
C      -1.46726818      -1.24733814       0.06531964        6 
O      -1.35429351      -0.27997886       1.12429565        8 
H      -0.92300916       1.11206066      -1.74372182        1 
H      -0.48932954      -1.13322997      -1.91245766        1 
H       3.36876671      -1.16871927       0.75301387        1 
H       2.46037412       3.08012793       0.76382000        1 
H      -3.69867129       0.84947567       0.45177985        1 
H      -3.11335095       1.28856835      -1.15924965        1 
H      -3.63682953      -1.41843111      -0.17400555        1 
H      -2.80805001      -1.06294681      -1.68790069        1 
H       2.65009363      -1.98323490       2.17879607        1 
H       2.88525600      -2.87549690       0.64102532        1 
H       3.36910299       2.09505842      -0.40702066        1 
H       3.30307799       1.59737361       1.31400914        1 
C      -1.44310021      -2.66587731       0.59408295        6 
H      -2.31500390      -2.83401000       1.23015538        1 
H      -1.48801819      -3.37392691      -0.23869332        1 
H      -0.54401500      -2.86021468       1.17475957        1 
C      -1.42341212       2.14591889       1.22145372        6 
H      -2.20574896       2.13788281       1.98353101        1 
H      -0.45474615       2.17760404       1.72308211        1 
H      -1.53490282       3.04903239       0.61657625        1 
