35
Lattice="0.0 0.0 0.0 0.0 0.0 0.0 0.0 0.0 0.0" Properties=species:S:1:pos:R:3:Z:I:1 pbc="F F F"
C      -0.35898477       0.57456719      -0.88134488        6 
C      -0.12546770      -0.95042987      -0.52091136        6 
C       0.80219567       1.43536767      -0.39261597        6 
C       1.27229885      -1.22095737       0.00206352        6 
O       0.61404706       1.97603159       0.81721754        8 
O       1.83466490       1.54239454      -1.01531500        8 
O       2.09131728      -1.48635183      -1.03460168        8 
O       1.62861293      -1.23012942       1.15536176        8 
C       3.49173168      -1.60825843      -0.72695199        6 
C       1.74805306       2.64903697       1.39604699        6 
C      -1.76878898       0.79526767      -0.25380505        6 
C      -2.78037697      -0.05030156      -1.08888349        6 
C      -2.55191040      -1.47618623      -0.53075959        6 
C      -1.34809492      -1.24412370       0.41717332        6 
O      -1.66639741       0.04641440       0.96950146        8 
H      -0.37112303       0.70006905      -1.96416014        1 
H      -0.20996606      -1.53641809      -1.43623521        1 
H       3.65454130      -2.37708298       0.02922114        1 
H       2.06970858       3.47506196       0.76042631        1 
H      -3.79732839       0.29659582      -0.89979812        1 
H      -2.59743350       0.03209225      -2.16248427        1 
H      -3.40741554      -1.81399952       0.05718293        1 
H      -2.34892571      -2.22648612      -1.29755813        1 
H       3.97066904      -1.88045443      -1.66469562        1 
H       3.87401759      -0.65087959      -0.36975148        1 
H       2.57011756       1.94405334       1.52488552        1 
H       1.40257990       3.01363814       2.36050885        1 
C      -1.17761151      -2.27565204       1.50961459        6 
H      -2.11683589      -2.38520669       2.05673071        1 
H      -0.91919181      -3.24527611       1.07421050        1 
H      -0.38909074      -1.98635415       2.20150036        1 
C      -2.22627120       2.21791165      -0.00677138        6 
H      -3.23454321       2.20804156       0.41314365        1 
H      -1.56305469       2.73578752       0.68162662        1 
H      -2.25671640       2.76873316      -0.95169219        1 
