35
Lattice="0.0 0.0 0.0 0.0 0.0 0.0 0.0 0.0 0.0" Properties=species:S:1:pos:R:3:Z:I:1 pbc="F F F"
C       0.23473493       0.98216629       0.60271719        6 
C       0.39011224      -0.56125875       0.88069506        6 
C      -1.09841321       1.36083440      -0.02540631        6 
C      -0.80786862      -1.43002028       0.55955842        6 
O      -2.09028272       1.05651687       0.84693859        8 
O      -1.30242069       1.87376309      -1.09416686        8 
O      -1.17922290      -1.33047483      -0.73180878        8 
O      -1.36738073      -2.13781478       1.36167915        8 
C      -2.31179450      -2.11840269      -1.13630562        6 
C      -3.43314753       1.28407189       0.38513189        6 
C       1.51961606       1.26855208      -0.23595239        6 
C       2.72841306       1.14761349       0.74083128        6 
C       2.88443503      -0.38688236       0.88287484        6 
C       1.68476542      -0.89324105       0.04693617        6 
O       1.63443925       0.06512176      -1.01954525        8 
H       0.26467191       1.51809920       1.55426101        1 
H       0.57153430      -0.73497114       1.93998291        1 
H      -3.17716026      -1.89562193      -0.51049175        1 
H      -3.59839202       0.77286447      -0.56445998        1 
H       3.61246038       1.60000360       0.28916322        1 
H       2.54324988       1.65509226       1.69013475        1 
H       3.81425042      -0.73489368       0.42915818        1 
H       2.85753294      -0.74126334       1.91514433        1 
H      -2.50005649      -1.84150385      -2.17111241        1 
H      -2.08200049      -3.18267529      -1.05906935        1 
H      -3.61662239       2.35154715       0.25187790        1 
H      -4.07905695       0.87774381       1.16023839        1 
C       1.81438180      -2.30270999      -0.48799239        6 
H       2.75619452      -2.40652159      -1.03103229        1 
H       1.80924067      -3.02279972       0.33477838        1 
H       0.99650790      -2.53954985      -1.16880688        1 
C       1.56329981       2.49974193      -1.11590682        6 
H       2.54332583       2.56290527      -1.59457765        1 
H       0.78880321       2.47269325      -1.87750288        1 
H       1.42052548       3.39950630      -0.51028119        1 
