35
Lattice="0.0 0.0 0.0 0.0 0.0 0.0 0.0 0.0 0.0" Properties=species:S:1:pos:R:3:Z:I:1 pbc="F F F"
C       0.09374565       0.73720097       0.62857956        6 
C       0.46301775      -0.78428275       0.64862148        6 
C      -1.13985976       1.08857243      -0.18343197        6 
C      -0.59888529      -1.79832642       0.25497895        6 
O      -2.06710250       1.68603855       0.60143555        8 
O      -1.27672837       0.94483676      -1.37213063        8 
O      -1.84403906      -1.31842918       0.44694059        8 
O      -0.37977076      -2.94306800      -0.05552859        8 
C      -2.92955961      -2.21864810       0.15924303        6 
C      -3.28701532       2.06361342      -0.05826885        6 
C       1.39281565       1.33841870      -0.00696594        6 
C       2.54271614       1.17050595       1.02878979        6 
C       2.91076168      -0.32641864       0.85982097        6 
C       1.82970356      -0.79967315      -0.14580685        6 
O       1.71233622       0.35284368      -0.99713378        8 
H      -0.06279420       1.11192422       1.63892793        1 
H       0.66918618      -1.06938493       1.68582406        1 
H      -2.84738379      -3.12204133       0.76485385        1 
H      -3.77711258       1.18415322      -0.48005549        1 
H       3.37741448       1.82099884       0.76274587        1 
H       2.22653538       1.43133212       2.04107861        1 
H       3.89703310      -0.44087462       0.40641868        1 
H       2.89961293      -0.89412151       1.79253357        1 
H      -3.83404657      -1.66863311       0.40955732        1 
H      -2.92376724      -2.48774395      -0.89772966        1 
H      -3.08763295       2.77752538      -0.85895126        1 
H      -3.90794433       2.51523548       0.71256466        1 
C       2.19874199      -2.01451829      -0.96600582        6 
H       3.16198885      -1.83120886      -1.44829179        1 
H       2.27731624      -2.90050324      -0.33507353        1 
H       1.45306718      -2.21556921      -1.73400638        1 
C       1.28095027       2.71658491      -0.62201204        6 
H       2.24597546       3.01237620      -1.03929719        1 
H       0.54085940       2.73172941      -1.42211204        1 
H       0.99830436       3.44845152       0.14006829        1 
