35
Lattice="0.0 0.0 0.0 0.0 0.0 0.0 0.0 0.0 0.0" Properties=species:S:1:pos:R:3:Z:I:1 pbc="F F F"
C      -0.71051094      -0.59295729      -0.58190494        6 
C       0.68094325       0.13150949      -0.68017018        6 
C      -1.81168926       0.20462147       0.10163268        6 
C       0.68859536       1.57672158      -0.19520204        6 
O      -2.64047013       0.72895167      -0.82818016        8 
O      -2.00264815       0.28915195       1.28835558        8 
O       1.93800728       2.03639348       0.00160489        8 
O      -0.28374606       2.28755421      -0.12173370        8 
C       2.05164662       3.42763746       0.35976454        6 
C      -3.66933594       1.59739965      -0.32528766        6 
C      -0.32226059      -1.92326623       0.14439318        6 
C       0.42254111      -2.80105034      -0.89871601        6 
C       1.79734211      -2.09337152      -0.98492414        6 
C       1.62117572      -0.92579349       0.02774193        6 
O       0.74506743      -1.50010086       1.00785744        8 
H      -1.07699690      -0.80345731      -1.58644972        1 
H       0.97562271       0.22077355      -1.72994574        1 
H       1.51545309       3.62586355       1.28862454        1 
H      -3.21496717       2.46262921       0.16019147        1 
H       0.52356737      -3.81839296      -0.51663181        1 
H      -0.10720391      -2.85126848      -1.85184305        1 
H       2.60122138      -2.75085080      -0.64963843        1 
H       2.05057390      -1.74005277      -1.98685762        1 
H       3.11738144       3.60493323       0.48594061        1 
H       1.64613832       4.05935630      -0.43184643        1 
H      -4.30496459       1.07047495       0.38795900        1 
H      -4.24337402       1.90411583      -1.19729037        1 
C       2.90806537      -0.48457331       0.69195894        6 
H       3.40598650      -1.36572667       1.10374567        1 
H       3.57398922      -0.00594915      -0.02743697        1 
H       2.71864630       0.21881031       1.50097040        1 
C      -1.40064442      -2.64539917       0.92233364        6 
H      -0.98548578      -3.55685098       1.35858235        1 
H      -1.79502447      -2.01660494       1.71749265        1 
H      -2.22097989      -2.92969546       0.25627895        1 
