35
Lattice="0.0 0.0 0.0 0.0 0.0 0.0 0.0 0.0 0.0" Properties=species:S:1:pos:R:3:Z:I:1 pbc="F F F"
C      -0.80901141       0.32525532      -0.90876777        6 
C       0.38796727      -0.62703740      -0.66325659        6 
C      -0.72999577       1.71775364      -0.30306171        6 
C       1.75228894       0.03676989      -0.65854001        6 
O       0.05663903       1.78625241       0.78197457        8 
O      -1.42255862       2.63363910      -0.68285383        8 
O       2.71226961      -0.79309970      -0.20083863        8 
O       1.98778827       1.13047148      -1.10964750        8 
C       4.06007925      -0.28846159      -0.25488879        6 
C       0.11954131       3.06364038       1.43637639        6 
C      -1.93047872      -0.47857826      -0.14823829        6 
C      -2.09751615      -1.87026535      -0.83542508        6 
C      -0.92723777      -2.68360027      -0.21902398        6 
C      -0.14302690      -1.56252100       0.50161120        6 
O      -1.23058435      -0.80477925       1.06350860        8 
H      -1.04425401       0.45367189      -1.96409429        1 
H       0.47625986      -1.26521771      -1.55085242        1 
H       4.15082510       0.61833904       0.34457536        1 
H      -0.87314665       3.37286306       1.76693195        1 
H      -3.06693935      -2.29899860      -0.57869974        1 
H      -2.04624478      -1.79424825      -1.92400974        1 
H      -1.29295865      -3.40106480       0.51842718        1 
H      -0.32622883      -3.22282808      -0.95448729        1 
H       4.68253716      -1.08200954       0.15275933        1 
H       4.34325035      -0.06698235      -1.28500917        1 
H       0.52598809       3.81567948       0.75826239        1 
H       0.77965475       2.92018156       2.28906651        1 
C       0.79590494      -1.99497432       1.60206622        6 
H       0.23243111      -2.56615822       2.34363484        1 
H       1.59993215      -2.61639670       1.20765907        1 
H       1.24114592      -1.12887706       2.09371353        1 
C      -3.22680035       0.23956514       0.15082933        6 
H      -3.89480303      -0.42972297       0.69756206        1 
H      -3.06532559       1.13435357       0.75198453        1 
H      -3.71626482       0.54285494      -0.77763507        1 
