35
Lattice="0.0 0.0 0.0 0.0 0.0 0.0 0.0 0.0 0.0" Properties=species:S:1:pos:R:3:Z:I:1 pbc="F F F"
C       0.45933455       0.87619592       0.59093895        6 
C       0.02871288      -0.61615004       0.69903653        6 
C      -0.63462323       1.85021334       0.18750651        6 
C      -1.15758833      -0.97736753      -0.17124476        6 
O      -1.76064749       1.57121325       0.88900166        8 
O      -0.52331550       2.81936109      -0.51725387        8 
O      -1.76584678      -2.08846055       0.30305541        8 
O      -1.52517866      -0.39262587      -1.15901383        8 
C      -2.87789610      -2.57454575      -0.47085378        6 
C      -2.90285321       2.39565205       0.60038261        6 
C       1.78616739       0.78927375      -0.24731727        6 
C       2.89264344       0.40205516       0.76743689        6 
C       2.48359369      -1.04971718       1.13120774        6 
C       1.31997605      -1.31579333       0.13160910        6 
O       1.63271923      -0.45119671      -0.96703017        8 
H       0.71083573       1.22080036       1.60000863        1 
H      -0.18105282      -0.92920104       1.72044445        1 
H      -2.55755658      -2.82967764      -1.48238040        1 
H      -3.19120911       2.27975474      -0.44557770        1 
H       3.86121119       0.42159778       0.26465625        1 
H       2.93806382       1.07808631       1.62346745        1 
H       3.29838679      -1.75328364       0.95326273        1 
H       2.16439804      -1.16717260       2.16916542        1 
H      -3.23178018      -3.45952890       0.05340189        1 
H      -3.66306799      -1.81879945      -0.52427963        1 
H      -2.68239117       3.44481098       0.80223916        1 
H      -3.69327485       2.03720226       1.25669916        1 
C       1.18525402      -2.74845274      -0.33656150        6 
H       2.14783860      -3.10188731      -0.71262735        1 
H       0.87125133      -3.39350909       0.48694979        1 
H       0.45316432      -2.83545084      -1.14123209        1 
C       2.14184940       1.90401934      -1.20362340        6 
H       3.09822544       1.67010589      -1.67801455        1 
H       1.37891722       2.02064342      -1.97080029        1 
H       2.23215698       2.85407333      -0.67412711        1 
