35
Lattice="0.0 0.0 0.0 0.0 0.0 0.0 0.0 0.0 0.0" Properties=species:S:1:pos:R:3:Z:I:1 pbc="F F F"
C       0.26469509       0.81054573       0.64254971        6 
C       0.10803166      -0.75049344       0.59151432        6 
C      -0.74342371       1.60604860      -0.17071615        6 
C      -1.17063784      -1.30811632       0.00149702        6 
O      -1.59195912       2.25885304       0.66958194        8 
O      -0.83882388       1.65745281      -1.36625274        8 
O      -1.76665638      -2.13372795       0.90276392        8 
O      -1.61510799      -1.11556649      -1.09978804        8 
C      -2.97159059      -2.78087514       0.45492077        6 
C      -2.64428615       3.00492013       0.03098373        6 
C       1.72168676       0.96277086       0.07946166        6 
C       2.69869430       0.36219297       1.13337267        6 
C       2.55463875      -1.16117511       0.87636696        6 
C       1.42064216      -1.18036006      -0.17830035        6 
O       1.73563710      -0.02442182      -0.96108110        8 
H       0.19698683       1.15636992       1.67290773        1 
H       0.15199960      -1.13157917       1.61016935        1 
H      -2.76972166      -3.39877276      -0.42176549        1 
H      -3.26924425       2.34132795      -0.56910578        1 
H       3.71465974       0.70771189       0.93507622        1 
H       2.44053070       0.65980142       2.15220825        1 
H       3.46329718      -1.57582522       0.43532348        1 
H       2.31489718      -1.73954150       1.77051013        1 
H      -3.29857017      -3.39599686       1.29051030        1 
H      -3.73199180      -2.04039768       0.20186110        1 
H      -2.22732567       3.78077789      -0.61304089        1 
H      -3.21981069       3.44811912       0.84100157        1 
C       1.33688416      -2.41546800      -1.04593146        6 
H       2.30624511      -2.60598347      -1.51128838        1 
H       1.06770557      -3.28715707      -0.44247148        1 
H       0.59164361      -2.28501806      -1.83110571        1 
C       2.11088800       2.32476650      -0.45302483        6 
H       3.14389087       2.30237785      -0.80680541        1 
H       1.46670555       2.61729771      -1.28160665        1 
H       2.03611713       3.07521303       0.33956519        1 
