35
Lattice="0.0 0.0 0.0 0.0 0.0 0.0 0.0 0.0 0.0" Properties=species:S:1:pos:R:3:Z:I:1 pbc="F F F"
C       0.47006548       0.77877469       0.65691296        6 
C       0.08466159      -0.73644126       0.63659061        6 
C      -0.57965258       1.81924713       0.30491198        6 
C      -1.14257074      -1.08492908      -0.18774153        6 
O      -1.83213102       1.33425056       0.40256516        8 
O      -0.34126973       2.98366925       0.09555301        8 
O      -2.07374645      -1.68802187       0.58948289        8 
O      -1.27195546      -0.93964931      -1.37665101        8 
C      -3.28140141      -2.08251792      -0.08267628        6 
C      -2.90331910       2.25868265       0.14016432        6 
C       1.82035211       0.78666945      -0.17065516        6 
C       2.92241365       0.33026003       0.81765352        6 
C       2.53965739      -1.15739355       1.03468089        6 
C       1.38280629      -1.34755490       0.00840637        6 
O       1.69116115      -0.37884722      -1.00159288        8 
H       0.71076071       1.04962539       1.69010881        1 
H      -0.08199572      -1.10934312       1.64605558        1 
H      -3.06394472      -2.79812342      -0.87727282        1 
H      -2.84808979       2.61521837      -0.88910444        1 
H       3.89692931       0.41985816       0.33420991        1 
H       2.94175249       0.92128741       1.73545412        1 
H       3.36717628      -1.82546877       0.79101321        1 
H       2.22189814      -1.38052430       2.05564493        1 
H      -3.90603272      -2.53812705       0.68284071        1 
H      -3.77722486      -1.21159339      -0.51516104        1 
H      -2.85063843       3.10800422       0.82251035        1 
H      -3.81803196       1.69220982       0.30018736        1 
C       1.27148007      -2.73755830      -0.57964033        6 
H       2.23294335      -3.03534587      -1.00377936        1 
H       1.00307240      -3.45667663       0.19947694        1 
H       0.52189754      -2.77256141      -1.37037443        1 
C       2.15620525       1.99144188      -1.01827472        6 
H       3.10500731       1.80905372      -1.52859346        1 
H       1.38508007       2.17118404      -1.76716382        1 
H       2.24404655       2.88778050      -0.40403574        1 
