35
Lattice="0.0 0.0 0.0 0.0 0.0 0.0 0.0 0.0 0.0" Properties=species:S:1:pos:R:3:Z:I:1 pbc="F F F"
C      -0.83037408      -0.16806781      -0.66753441        6 
C       0.72466055      -0.18754005      -0.64086009        6 
C      -1.47411016       0.93435294       0.16369742        6 
C       1.39251296       1.14145405      -0.34097948        6 
O      -2.31433237       1.66251187      -0.60838858        8 
O      -1.33371580       1.11332213       1.34535313        8 
O       2.73506185       1.00740909      -0.29572782        8 
O       0.83628203       2.20740618      -0.24799201        8 
C       3.48160722       2.22030558      -0.07844496        6 
C      -2.97152118       2.75767832       0.05296776        6 
C      -1.13566894      -1.57164194      -0.04431040        6 
C      -0.60889339      -2.66443785      -1.02319356        6 
C       0.91133019      -2.67488239      -0.71046064        6 
C       1.02728587      -1.46561649       0.24924472        6 
O      -0.17482342      -1.61337247       1.02030024        8 
H      -1.21035754      -0.08533589      -1.68483940        1 
H       1.08288741      -0.40597059      -1.65201141        1 
H       3.18744497       2.68337513       0.86421596        1 
H      -2.23188535       3.47512306       0.41174098        1 
H      -1.07172816      -3.62537817      -0.79271005        1 
H      -0.83762106      -2.42719539      -2.06452613        1 
H       1.19711617      -3.58394869      -0.17735739        1 
H       1.54662438      -2.58443770      -1.59421423        1 
H       4.52538679       1.91578238      -0.04864286        1 
H       3.30815098       2.92406189      -0.89394327        1 
H      -3.56369698       2.39817819       0.89605858        1 
H      -3.61227985       3.21026138      -0.70097431        1 
C       2.22594984      -1.46026521       1.16938872        6 
H       2.22969841      -2.38683095       1.74800800        1 
H       3.15372936      -1.39222718       0.60072457        1 
H       2.18334501      -0.61924146       1.86306519        1 
C      -2.53949597      -1.79786287       0.47249665        6 
H      -2.62159492      -2.80147797       0.89521482        1 
H      -2.79320553      -1.07519344       1.24849265        1 
H      -3.26080143      -1.70751025      -0.34450312        1 
