35
Lattice="0.0 0.0 0.0 0.0 0.0 0.0 0.0 0.0 0.0" Properties=species:S:1:pos:R:3:Z:I:1 pbc="F F F"
C       0.05543550       0.69639739       0.66947544        6 
C       0.47388930      -0.80126263       0.62966751        6 
C      -1.13494697       1.05941564      -0.19897744        6 
C      -0.56867099      -1.86342098       0.33280984        6 
O      -1.99225255       1.84951761       0.49203205        8 
O      -1.29954361       0.75886155      -1.35325763        8 
O      -1.82660116      -1.40144457       0.46517933        8 
O      -0.31236510      -3.03055756       0.15874905        8 
C      -2.88434969      -2.35712364       0.26853599        6 
C      -3.15804281       2.28331084      -0.22990708        6 
C       1.35432368       1.35198650       0.08010120        6 
C       2.52356368       1.09230415       1.07826830        6 
C       2.92520595      -0.36750467       0.73296623        6 
C       1.79285395      -0.76402018      -0.24540293        6 
O       1.64757506       0.45370765      -0.99622142        8 
H      -0.14499912       1.03606863       1.68413367        1 
H       0.77128181      -1.08066292       1.64610698        1 
H      -2.79175657      -3.18225836       0.97613433        1 
H      -3.72911134       1.42225667      -0.58098259        1 
H       3.34055436       1.79030362       0.88942181        1 
H       2.20978899       1.22265948       2.11653134        1 
H       3.88032654      -0.39735997       0.20539809        1 
H       2.99049153      -1.02774038       1.59990074        1 
H      -3.80634246      -1.80541067       0.43795505        1 
H      -2.85321834      -2.74736651      -0.74951947        1 
H      -2.87433314       2.89554441      -1.08761585        1 
H      -3.74055831       2.86658913       0.48014792        1 
C       2.08040544      -1.91757302      -1.17592231        6 
H       3.00806395      -1.71635102      -1.71724140        1 
H       2.18118039      -2.85012426      -0.62059065        1 
H       1.27392040      -2.04065348      -1.89968644        1 
C       1.22870631       2.77622553      -0.41464318        6 
H       2.18324737       3.11101725      -0.82651647        1 
H       0.47325611       2.85591846      -1.19807876        1 
H       0.95476780       3.44106570       0.40882115        1 
