35
Lattice="0.0 0.0 0.0 0.0 0.0 0.0 0.0 0.0 0.0" Properties=species:S:1:pos:R:3:Z:I:1 pbc="F F F"
C      -0.36370597       0.79639676      -0.87803522        6 
C      -0.42586503      -0.77604883      -0.82692985        6 
C       0.97938704       1.42570545      -0.53646500        6 
C       0.87929096      -1.54469746      -0.73548836        6 
O       1.26405175       1.42745327       0.77232151        8 
O       1.69970185       1.92004346      -1.37447392        8 
O       1.56918791      -1.31526360       0.39497739        8 
O       1.25317230      -2.30872055      -1.59488670        8 
C       2.81137758      -2.02850176       0.53670537        6 
C       2.54695885       1.95827409       1.13989394        6 
C      -1.53641169       1.15146367       0.09990708        6 
C      -2.86506448       0.70922126      -0.58410710        6 
C      -2.87055083      -0.81921101      -0.32782801        6 
C      -1.48027511      -1.01729658       0.32448627        6 
O      -1.37007973       0.16446163       1.13068346        8 
H      -0.57355225       1.13725328      -1.89092509        1 
H      -0.84491813      -1.12861624      -1.76809082        1 
H       3.47985931      -1.79878751      -0.29401220        1 
H       2.63021198       3.00650777       0.84817807        1 
H      -3.71113457       1.20006759      -0.10022178        1 
H      -2.88983639       0.97369939      -1.64346094        1 
H      -3.64605984      -1.09734955       0.38854743        1 
H      -3.00773285      -1.41818499      -1.23019136        1 
H       3.23282344      -1.68553796       1.47903294        1 
H       2.63265944      -3.10464170       0.56542350        1 
H       3.34424487       1.39000621       0.65753480        1 
H       2.60213240       1.85380952       2.22122866        1 
C      -1.31831027      -2.26610091       1.16047146        6 
H      -2.11935150      -2.32307544       1.90070880        1 
H      -1.37090340      -3.15566629       0.52663348        1 
H      -0.36151516      -2.26094669       1.68213376        1 
C      -1.56878391       2.55474085       0.66597361        6 
H      -2.42303435       2.65943929       1.33849901        1 
H      -0.66077981       2.78181956       1.22173767        1 
H      -1.68061384       3.28147187      -0.14378045        1 
