35
Lattice="0.0 0.0 0.0 0.0 0.0 0.0 0.0 0.0 0.0" Properties=species:S:1:pos:R:3:Z:I:1 pbc="F F F"
C      -0.76037908       0.04913380      -0.78017359        6 
C       0.73223071      -0.33458782      -0.63965535        6 
C      -1.15044317       1.22017605       0.11418976        6 
C       1.68827671       0.84517688      -0.61903082        6 
O      -2.41645088       1.61154854      -0.15857475        8 
O      -0.44352217       1.78528238       0.90736068        8 
O       2.87034382       0.55083993      -0.04491114        8 
O       1.45505856       1.90198284      -1.15147237        8 
C       3.84937902       1.60710511      -0.04867051        6 
C      -2.90842259       2.72987939       0.60171294        6 
C      -1.39944362      -1.26470511      -0.18261877        6 
C      -0.93026845      -2.48988219      -1.03157539        6 
C       0.47253117      -2.78498779      -0.43590695        6 
C       0.69365343      -1.51435800       0.41616796        6 
O      -0.61185629      -1.37982842       1.01520256        8 
H      -1.07504428       0.25212174      -1.80277848        1 
H       1.02002490      -0.79267782      -1.59476512        1 
H       3.46090941       2.48286058       0.47235647        1 
H      -2.29603734       3.61364330       0.41687709        1 
H      -1.61297824      -3.32936668      -0.89609429        1 
H      -0.90552547      -2.25591260      -2.09871733        1 
H       0.44893303      -3.65983635       0.21712551        1 
H       1.25015215      -2.93486398      -1.18795488        1 
H       4.71378858       1.20077837       0.47215103        1 
H       4.11024705       1.88267384      -1.07170403        1 
H      -2.89605451       2.50204686       1.66891114        1 
H      -3.92752839       2.88911715       0.25579189        1 
C       1.74295399      -1.59696982       1.49786944        6 
H       1.49370840      -2.42491384       2.16634191        1 
H       2.73004366      -1.77100651       1.06951135        1 
H       1.77786434      -0.67417637       2.07681058        1 
C      -2.87617084      -1.27482275       0.14910300        6 
H      -3.14299400      -2.25162575       0.55916465        1 
H      -3.13118353      -0.51132415       0.88194844        1 
H      -3.47196399      -1.09782600      -0.74923191        1 
