35
Lattice="0.0 0.0 0.0 0.0 0.0 0.0 0.0 0.0 0.0" Properties=species:S:1:pos:R:3:Z:I:1 pbc="F F F"
C      -0.75128266       0.53151588      -0.86291307        6 
C       0.13753213      -0.74535775      -0.74644558        6 
C      -0.18424173       1.81956144      -0.29583518        6 
C       1.62530912      -0.43072298      -0.73730297        6 
O       0.66962161       1.61802563       0.72356198        8 
O      -0.54192974       2.91458382      -0.65928788        8 
O       2.35459502      -1.20815691       0.07811601        8 
O       2.11202470       0.38971737      -1.47929369        8 
C       3.77882762      -0.99405533       0.04269748        6 
C       1.22190365       2.79878204       1.33006455        6 
C      -1.99284197       0.08156015      -0.01095256        6 
C      -2.68157139      -1.09669493      -0.75964933        6 
C      -1.77468133      -2.29427660      -0.37571472        6 
C      -0.61682257      -1.57775118       0.36668112        6 
O      -1.34643685      -0.57047709       1.09218119        8 
H      -1.03428452       0.75381386      -1.89019222        1 
H       0.04085988      -1.29707766      -1.68810050        1 
H       4.01411540       0.03756349       0.30676321        1 
H       0.42746512       3.42349232       1.74066848        1 
H      -3.70091906      -1.23000993      -0.39357690        1 
H      -2.73651857      -0.91765145      -1.83555694        1 
H      -2.28202999      -2.96248977       0.32257761        1 
H      -1.43784302      -2.88665012      -1.22897709        1 
H       4.19145017      -1.68374554       0.77574703        1 
H       4.17141906      -1.20828310      -0.95238058        1 
H       1.78825123       3.37149523       0.59410023        1 
H       1.87369467       2.43929202       2.12333580        1 
C       0.15163330      -2.44832995       1.33491502        6 
H      -0.55935681      -2.93664700       2.00572104        1 
H       0.71850738      -3.21580384       0.80497411        1 
H       0.84915826      -1.85894381       1.92740897        1 
C      -2.92602816       1.16596648       0.47797892        6 
H      -3.72607819       0.71802284       1.07132408        1 
H      -2.40213104       1.89307412       1.09934730        1 
H      -3.36933883       1.69908470      -0.36608832        1 
