35
Lattice="0.0 0.0 0.0 0.0 0.0 0.0 0.0 0.0 0.0" Properties=species:S:1:pos:R:3:Z:I:1 pbc="F F F"
C       0.38662174       0.84354261       0.64524671        6 
C       0.18715700      -0.72165431       0.59109468        6 
C      -0.68378586       1.61070462      -0.12242354        6 
C      -1.13251910      -1.16325988      -0.00432153        6 
O      -1.88692667       1.39380031       0.46433473        8 
O      -0.54276368       2.33650631      -1.07033008        8 
O      -1.96514542      -1.60216942       0.96577664        8 
O      -1.41206293      -1.19538213      -1.17807758        8 
C      -3.26942471      -2.02157469       0.53068025        6 
C      -3.02743629       1.96461087      -0.20306419        6 
C       1.83972876       0.96787000       0.09512856        6 
C       2.78850631       0.32184648       1.15266180        6 
C       2.61366012      -1.19129928       0.87175552        6 
C       1.48055230      -1.17214484      -0.18349071        6 
O       1.82515649      -0.01307895      -0.95763931        8 
H       0.31269881       1.18332413       1.68077093        1 
H       0.20574529      -1.11481917       1.60648884        1 
H      -3.19157476      -2.83399373      -0.19338410        1 
H      -3.12928770       1.53189509      -1.19967890        1 
H       3.81436668       0.64780205       0.97492027        1 
H       2.52329599       0.60955411       2.17288458        1 
H       3.51356807      -1.61787268       0.42442601        1 
H       2.36054824      -1.77985238       1.75567936        1 
H      -3.78242703      -2.35624083       1.42970996        1 
H      -3.80274592      -1.18559473       0.07486912        1 
H      -2.92334371       3.04709415      -0.28532696        1 
H      -3.88373147       1.70861056       0.41758636        1 
C       1.38723452      -2.40153376      -1.05942038        6 
H       2.36251908      -2.60385034      -1.50742372        1 
H       1.09751226      -3.27134913      -0.46224889        1 
H       0.65405740      -2.26092225      -1.85180300        1 
C       2.31271294       2.31456943      -0.41135619        6 
H       3.35892271       2.23746940      -0.71624889        1 
H       1.71337582       2.65100162      -1.25240043        1 
H       2.24325421       3.06068210       0.38602286        1 
