35
Lattice="0.0 0.0 0.0 0.0 0.0 0.0 0.0 0.0 0.0" Properties=species:S:1:pos:R:3:Z:I:1 pbc="F F F"
C      -0.72792742      -0.32646854      -0.63431722        6 
C       0.76598864       0.04985851      -0.77586569        6 
C      -1.68114893       0.85490188      -0.61175270        6 
C       1.16497240       1.21572535       0.12169314        6 
O      -2.86848704       0.55183077      -0.05132871        8 
O      -1.44616408       1.91657825      -1.13306834        8 
O       2.43309849       1.60114855      -0.14951435        8 
O       0.45901067       1.78784988       0.91080269        8 
C       2.92090204       2.72772036       0.60161015        6 
C      -3.85504050       1.60082301      -0.05893152        6 
C      -0.69648139      -1.50847630       0.41905681        6 
C      -0.48420380      -2.77895261      -0.43539598        6 
C       0.91871509      -2.49054897      -1.03357420        6 
C       1.39710047      -1.27018612      -0.18288568        6 
O       0.61070923      -1.38273880       1.01625173        8 
H      -1.01870970      -0.78188032      -1.58995272        1 
H       1.08012085       0.25462186      -1.79828019        1 
H       2.90893995       2.50910142       1.67068588        1 
H      -4.11285713       1.87555324      -1.08304121        1 
H      -0.46351987      -3.65463257       0.21664940        1 
H      -1.26461479      -2.92378330      -1.18555917        1 
H       1.59679026      -3.33432796      -0.90131159        1 
H       0.89316901      -2.25407475      -2.10014973        1 
H       3.93923392       2.88825130       0.25423148        1 
H       2.30443000       3.60708812       0.40921803        1 
H      -3.47690160       2.47890947       0.46561928        1 
H      -4.71944859       1.18707075       0.45623669        1 
C       2.87405979      -1.28962843       0.14585539        6 
H       3.13684308      -2.26913752       0.55193199        1 
H       3.46869437      -1.11259531      -0.75326335        1 
H       3.13433217      -0.52954687       0.88037950        1 
C      -1.74583587      -1.58785768       1.50126128        6 
H      -1.49786504      -2.41589133       2.17009328        1 
H      -1.77988583      -0.66474326       2.07979573        1 
H      -2.73324979      -1.76072423       1.07309230        1 
