35
Lattice="0.0 0.0 0.0 0.0 0.0 0.0 0.0 0.0 0.0" Properties=species:S:1:pos:R:3:Z:I:1 pbc="F F F"
C       0.44559545       0.81743182       0.64317446        6 
C       0.11877415      -0.72018138       0.61206225        6 
C      -0.63295624       1.75819271       0.12395705        6 
C      -1.14951364      -1.08983698      -0.13278142        6 
O      -1.85632341       1.32017688       0.49715363        8 
O      -0.45895789       2.81452045      -0.42745054        8 
O      -2.04431198      -1.65704975       0.70814423        8 
O      -1.33040463      -0.99250440      -1.32124651        8 
C      -3.28789439      -2.06400001       0.11342072        6 
C      -2.97787243       2.12094481       0.08351717        6 
C       1.85184186       0.85366155      -0.06025165        6 
C       2.87119595       0.30667585       0.97894466        6 
C       2.55126015      -1.20914234       0.97591571        6 
C       1.40983247      -1.28942124      -0.07258483        6 
O       1.75680398      -0.24183494      -0.98794777        8 
H       0.55831444       1.12849529       1.68669246        1 
H       0.01597872      -1.10595710       1.62503818        1 
H      -3.11573978      -2.79541106      -0.67766642        1 
H      -3.05735603       2.11803474      -1.00462301        1 
H       3.88545796       0.49705905       0.62443295        1 
H       2.76572750       0.77728582       1.95861775        1 
H       3.40448666      -1.79461053       0.62863016        1 
H       2.25243154      -1.60020550       1.95052315        1 
H      -3.86791480      -2.50285977       0.92248930        1 
H      -3.80778883      -1.20100128      -0.30655214        1 
H      -2.86809757       3.14643807       0.43771659        1 
H      -3.84987833       1.64983473       0.53223016        1 
C       1.28983557      -2.61966352      -0.78449419        6 
H       2.25842685      -2.89633135      -1.20643448        1 
H       0.98763232      -3.40034340      -0.08018661        1 
H       0.56079777      -2.56927991      -1.59245462        1 
C       2.30163134       2.10801087      -0.77650722        6 
H       3.30751603       1.94343506      -1.17086109        1 
H       1.63435152       2.36185203      -1.59688737        1 
H       2.32896490       2.95694071      -0.09039397        1 
