35
Lattice="0.0 0.0 0.0 0.0 0.0 0.0 0.0 0.0 0.0" Properties=species:S:1:pos:R:3:Z:I:1 pbc="F F F"
C       0.19405197       0.73267770       0.57263267        6 
C       0.35674704      -0.83780264       0.62791970        6 
C      -1.13213876       1.23932936       0.04160119        6 
C      -0.69727152      -1.63072161      -0.14193356        6 
O      -1.96240763       1.52572255       1.06991574        8 
O      -1.41121269       1.46051530      -1.11118676        8 
O      -1.93642755      -1.24184062       0.23541983        8 
O      -0.51108214      -2.54312951      -0.90455852        8 
C      -3.03651675      -1.90010309      -0.41910903        6 
C      -3.27518582       1.98180500       0.70601548        6 
C       1.48903215       1.15626570      -0.21628194        6 
C       2.62285661       1.18485283       0.83636011        6 
C       2.75175674      -0.31974794       1.17646139        6 
C       1.82160569      -0.98366837       0.11006711        6 
O       1.82574430      -0.02510755      -0.96370166        8 
H       0.25318669       1.11019682       1.59304179        1 
H       0.26105077      -1.17655143       1.66327993        1 
H      -2.97011881      -2.98053038      -0.28675240        1 
H      -3.77934602       1.23519492       0.09014897        1 
H       3.53377443       1.56473659       0.36969481        1 
H       2.38933678       1.81636038       1.69592151        1 
H       3.77505094      -0.67610307       1.05227932        1 
H       2.43968236      -0.56027203       2.19553572        1 
H      -3.93240140      -1.50919252       0.05833893        1 
H      -3.03372546      -1.66289492      -1.48395092        1 
H      -3.21704255       2.91984214       0.15136778        1 
H      -3.80525653       2.12445493       1.64523343        1 
C       2.31570450      -2.33532965      -0.36354470        6 
H       3.37067854      -2.25090926      -0.63489872        1 
H       2.22528810      -3.07299111       0.43897757        1 
H       1.74759456      -2.69006121      -1.21785494        1 
C       1.42083498       2.36594246      -1.12149733        6 
H       2.40417901       2.53984553      -1.56410098        1 
H       0.68926912       2.22218782      -1.91363004        1 
H       1.14126279       3.25414795      -0.54742241        1 
