35
Lattice="0.0 0.0 0.0 0.0 0.0 0.0 0.0 0.0 0.0" Properties=species:S:1:pos:R:3:Z:I:1 pbc="F F F"
C      -0.44629569       0.58314014      -0.90499507        6 
C      -0.03099066      -0.90112809      -0.55453999        6 
C       0.63292046       1.56706935      -0.46956432        6 
C       1.37879255      -1.02982155      -0.01544346        6 
O       0.43139173       2.11534002       0.73178341        8 
O       1.61516602       1.77484315      -1.14643689        8 
O       2.18153637      -1.60053615      -0.93690328        8 
O       1.75993435      -0.69109285       1.07913943        8 
C       3.57331322      -1.70487070      -0.58232296        6 
C       1.51845215       2.89479739       1.26500151        6 
C      -1.85165843       0.65160165      -0.23250109        6 
C      -2.78970983      -0.30396773      -1.03426795        6 
C      -2.38867116      -1.69477269      -0.48194107        6 
C      -1.19001554      -1.32407023       0.42464148        6 
O      -1.62912286      -0.07697577       0.98641129        8 
H      -0.51078375       0.69642284      -1.98747530        1 
H      -0.07156819      -1.50543789      -1.45897146        1 
H       3.69297689      -2.29452379       0.32770633        1 
H       1.75453606       3.72957509       0.60374805        1 
H      -3.83237615      -0.06969920      -0.81459655        1 
H      -2.64927051      -0.20638076      -2.11310724        1 
H      -3.18395886      -2.12005305       0.13311157        1 
H      -2.12939328      -2.42100698      -1.25493844        1 
H       4.05029846      -2.19748832      -1.42658319        1 
H       3.99427099      -0.71015066      -0.43014003        1 
H       2.39733772       2.26114686       1.38770291        1 
H       1.16762490       3.25220809       2.23035474        1 
C      -0.85834236      -2.32113506       1.51155272        6 
H      -1.75356111      -2.53078668       2.10140578        1 
H      -0.51099815      -3.26025330       1.07110854        1 
H      -0.08322986      -1.93358354       2.17132805        1 
C      -2.45102413       2.01776236       0.02710759        6 
H      -3.44247654       1.90391144       0.47120203        1 
H      -1.82871198       2.60439845       0.69846088        1 
H      -2.56122232       2.55941906      -0.91706515        1 
