35
Lattice="0.0 0.0 0.0 0.0 0.0 0.0 0.0 0.0 0.0" Properties=species:S:1:pos:R:3:Z:I:1 pbc="F F F"
C      -0.26206653       0.92203824       0.49731724        6 
C       0.40158503      -0.48169789       0.74109536        6 
C      -1.72232443       0.91061335       0.07844318        6 
C      -0.29159646      -1.60304568      -0.03983224        6 
O      -2.48065875       0.58893231       1.15224235        8 
O      -2.18361929       1.25196474      -0.98050018        8 
O       0.53562309      -2.59893365      -0.39581087        8 
O      -1.48414432      -1.66490852      -0.21953519        8 
C      -0.07457901      -3.72290350      -1.06085440        6 
C      -3.88009012       0.39321409       0.89099627        6 
C       0.81223330       1.65255247      -0.39052177        6 
C       1.80325100       2.26974337       0.62100307        6 
C       2.38617481       0.99127080       1.26984394        6 
C       1.86962875      -0.13694999       0.31229955        6 
O       1.60702252       0.56699029      -0.91610996        8 
H      -0.29387672       1.42047117       1.46861491        1 
H       0.33234381      -0.77160301       1.79300559        1 
H      -0.56341589      -3.39944517      -1.98033985        1 
H      -4.00946799      -0.42870281       0.18527890        1 
H       2.57113566       2.82653500       0.07998339        1 
H       1.32068388       2.94749669       1.32842427        1 
H       3.47613510       1.00403324       1.28544069        1 
H       2.04526839       0.83717669       2.29648684        1 
H       0.74447424      -4.40451531      -1.27955406        1 
H      -0.80925328      -4.19783801      -0.40935435        1 
H      -4.32862832       1.30088748       0.48432455        1 
H      -4.32405345       0.14461467       1.85286622        1 
C       2.89993642      -1.22747488       0.09258104        6 
H       3.86989771      -0.76108824      -0.09469312        1 
H       2.98765789      -1.85870464       0.98067263        1 
H       2.64651329      -1.85897515      -0.75301559        1 
C       0.36434330       2.56753031      -1.50663722        6 
H       1.24745913       2.98455015      -1.99695629        1 
H      -0.24167104       2.03586084      -2.23656619        1 
H      -0.23414199       3.39090603      -1.10960091        1 
