35
Lattice="0.0 0.0 0.0 0.0 0.0 0.0 0.0 0.0 0.0" Properties=species:S:1:pos:R:3:Z:I:1 pbc="F F F"
C       0.23642170       0.75043375       0.59858679        6 
C       0.31249298      -0.82734886       0.62860783        6 
C      -1.04004966       1.28504793      -0.01526045        6 
C      -0.78858811      -1.48063099      -0.19255901        6 
O      -1.89188825       1.68737205       0.95751455        8 
O      -1.29869359       1.36115392      -1.19007874        8 
O      -1.90821434      -1.58762670       0.56876335        8 
O      -0.74307800      -1.82561510      -1.34266707        8 
C      -3.07665691      -2.09408287      -0.10295036        6 
C      -3.17836452       2.15302142       0.51316101        6 
C       1.57664648       1.11288318      -0.13792550        6 
C       2.68985607       1.00093664       0.93450435        6 
C       2.74858249      -0.53190127       1.15408932        6 
C       1.75309492      -1.05474873       0.07513233        6 
O       1.83638496      -0.04565364      -0.94437448        8 
H       0.25867956       1.12116385       1.62237387        1 
H       0.20544585      -1.18334099       1.65336718        1 
H      -2.90827329      -3.11605537      -0.44623476        1 
H      -3.70634327       1.35964765      -0.01887606        1 
H       3.62565415       1.37786047       0.51763006        1 
H       2.46842236       1.56956337       1.83999269        1 
H       3.74641636      -0.92689700       0.95717963        1 
H       2.46338859      -0.84014714       2.16265425        1 
H      -3.87183426      -2.06738047       0.63916483        1 
H      -3.32393199      -1.46604085      -0.96041235        1 
H      -3.06881153       3.01444369      -0.14733087        1 
H      -3.71568843       2.42862105       1.41793091        1 
C       2.08731006      -2.42571385      -0.47355112        6 
H       3.12763840      -2.44153026      -0.80611658        1 
H       1.96807819      -3.18177137       0.30860547        1 
H       1.44357930      -2.68092362      -1.31249944        1 
C       1.59785954       2.37205040      -0.97480473        6 
H       2.59421423       2.51224391      -1.39968797        1 
H       0.87242484       2.31257283      -1.78499377        1 
H       1.36375005       3.24295713      -0.35528139        1 
