35
Lattice="0.0 0.0 0.0 0.0 0.0 0.0 0.0 0.0 0.0" Properties=species:S:1:pos:R:3:Z:I:1 pbc="F F F"
C       0.06576138       0.71157158       0.65175884        6 
C       0.47732159      -0.79229635       0.63709365        6 
C      -1.14157764       1.05436054      -0.20162320        6 
C      -0.57037361      -1.83939875       0.30302941        6 
O      -2.03355744       1.77822101       0.51626191        8 
O      -1.28989334       0.79534548      -1.36866115        8 
O      -1.82291252      -1.37681404       0.48626250        8 
O      -0.32763283      -2.99554600       0.05647502        8 
C      -2.89169777      -2.31258226       0.25592949        6 
C      -3.22161782       2.17636163      -0.18915704        6 
C       1.36068073       1.35643387       0.04633334        6 
C       2.52238336       1.14194000       1.06207470        6 
C       2.92378274      -0.33192723       0.78631070        6 
C       1.81580099      -0.76667217      -0.20536700        6 
O       1.67331609       0.42559083      -0.99657672        8 
H      -0.12482944       1.06570393       1.66337424        1 
H       0.73903221      -1.07263176       1.66322371        1 
H      -2.79045263      -3.17836765       0.91176837        1 
H      -3.75072610       1.29954325      -0.56628851        1 
H       3.34107139       1.82918287       0.84305409        1 
H       2.20424903       1.32190986       2.09147807        1 
H       3.89299836      -0.38826229       0.28751978        1 
H       2.96259906      -0.95603146       1.68118718        1 
H      -3.80583843      -1.76630496       0.47766297        1 
H      -2.88440544      -2.64195437      -0.78385731        1 
H      -2.97142595       2.82856349      -1.02757955        1 
H      -3.82975964       2.70731665       0.54020751        1 
C       2.14639047      -1.94235253      -1.09436991        6 
H       3.08933531      -1.74236218      -1.60902604        1 
H       2.24169317      -2.85782281      -0.51016088        1 
H       1.36668085      -2.09856250      -1.83984707        1 
C       1.22886259       2.76274563      -0.49610146        6 
H       2.18427030       3.08940948      -0.91247977        1 
H       0.47795733       2.81176516      -1.28593581        1 
H       0.94804194       3.45247913       0.30445791        1 
