35
Lattice="0.0 0.0 0.0 0.0 0.0 0.0 0.0 0.0 0.0" Properties=species:S:1:pos:R:3:Z:I:1 pbc="F F F"
C       0.13540443       0.82482736       0.58748889        6 
C       0.41461560      -0.72081340       0.73107370        6 
C      -1.20812676       1.24058575       0.01047703        6 
C      -0.59229778      -1.74947628       0.23125557        6 
O      -2.09943048       1.39561231       1.02037380        8 
O      -1.47079789       1.48110289      -1.13969098        8 
O      -1.76464006      -1.23128950      -0.16087175        8 
O      -0.36044533      -2.93503538       0.20731692        8 
C      -2.74025449      -2.15472446      -0.67792725        6 
C      -3.43544848       1.74515989       0.62645290        6 
C       1.39044686       1.30434597      -0.21944583        6 
C       2.57762795       1.32368220       0.78158902        6 
C       2.86661286      -0.18650102       0.95908539        6 
C       1.82174632      -0.82902714       0.00605329        6 
O       1.69327669       0.15722669      -1.02923025        8 
H       0.15315710       1.25907001       1.58773117        1 
H       0.53883045      -0.97462332       1.78604431        1 
H      -3.06952487      -2.83777075       0.10658845        1 
H      -3.86187237       0.96133894      -0.00215443        1 
H       3.42696756       1.84047406       0.33113439        1 
H       2.32892192       1.83678209       1.71263259        1 
H       3.87263814      -0.44212111       0.62283785        1 
H       2.75936256      -0.53771388       1.98722064        1 
H      -3.56525022      -1.53614932      -1.02366948        1 
H      -2.31843490      -2.72709953      -1.50427817        1 
H      -3.44096107       2.68672611       0.07513230        1 
H      -3.99871310       1.83923016       1.55251517        1 
C       2.25371517      -2.15058071      -0.59020508        6 
H       3.23620399      -2.01766645      -1.04963078        1 
H       2.32200326      -2.92103512       0.17868062        1 
H       1.55743482      -2.49771088      -1.35204419        1 
C       1.27317614       2.55311157      -1.06713468        6 
H       2.24155080       2.76926902      -1.52386112        1 
H       0.52596326       2.43109750      -1.84732632        1 
H       0.99117118       3.40748464      -0.44450544        1 
