35
Lattice="0.0 0.0 0.0 0.0 0.0 0.0 0.0 0.0 0.0" Properties=species:S:1:pos:R:3:Z:I:1 pbc="F F F"
C      -0.66030430       0.68005360      -0.82380942        6 
C      -0.05623386      -0.76480506      -0.76325342        6 
C       0.14795566       1.81890422      -0.22064679        6 
C       1.46494467      -0.78755133      -0.81530456        6 
O       1.22645783       1.41165977       0.46749382        8 
O      -0.20557140       2.97316731      -0.27113494        8 
O       2.07001825      -1.36543908       0.23264184        8 
O       2.06475805      -0.36745055      -1.77755980        8 
C       3.50774064      -1.37899495       0.19328992        6 
C       1.99194280       2.43581477       1.12566233        6 
C      -1.96227433       0.45717680       0.03575562        6 
C      -2.86323569      -0.56131047      -0.72737346        6 
C      -2.21144054      -1.91594723      -0.35687964        6 
C      -0.92412603      -1.44560775       0.36448301        6 
O      -1.42743261      -0.32398430       1.11854133        8 
H      -0.90437513       0.98233566      -1.84203461        1 
H      -0.31032005      -1.24492503      -1.71171487        1 
H       3.89161217      -0.35801847       0.16385247        1 
H       1.37046825       2.96907282       1.84601039        1 
H      -3.89051535      -0.49551881      -0.36647793        1 
H      -2.87641092      -0.36513579      -1.80161297        1 
H      -2.83420630      -2.47260555       0.34602439        1 
H      -2.00500077      -2.55946271      -1.21462280        1 
H       3.81694926      -1.88086639       1.10771377        1 
H       3.86397242      -1.92042911      -0.68408848        1 
H       2.38794625       3.14262552       0.39510571        1 
H       2.79974516       1.91168293       1.63161311        1 
C      -0.31047941      -2.46938090       1.29286882        6 
H      -1.08608173      -2.85777411       1.95764425        1 
H       0.10648598      -3.30188451       0.72177003        1 
H       0.48636951      -2.03269534       1.88954782        1 
C      -2.70480770       1.66711341       0.55852086        6 
H      -3.57869451       1.33089351       1.12104804        1 
H      -2.08258485       2.27815752       1.21049518        1 
H      -3.03885278       2.29446460      -0.27019540        1 
