35
Lattice="0.0 0.0 0.0 0.0 0.0 0.0 0.0 0.0 0.0" Properties=species:S:1:pos:R:3:Z:I:1 pbc="F F F"
C      -0.80428253       0.32755843      -0.93513807        6 
C       0.42653365      -0.54877475      -0.61298744        6 
C      -0.88826920       1.68813450      -0.24815392        6 
C       1.79045300       0.10998321      -0.67399891        6 
O       0.05640144       1.88020754       0.68218703        8 
O      -1.82113398       2.44269777      -0.40495078        8 
O       2.75619938      -0.77037786      -0.31753280        8 
O       2.03094115       1.22290035      -1.06668455        8 
C       4.11031164      -0.29204571      -0.41094588        6 
C      -0.05860025       3.07893149       1.46512426        6 
C      -1.90419465      -0.58534010      -0.24829776        6 
C      -1.84531654      -2.02500545      -0.86009703        6 
C      -0.68947076      -2.68341247      -0.05839123        6 
C      -0.07431674      -1.43412690       0.60673282        6 
O      -1.27362379      -0.76005833       1.03578139        8 
H      -0.97586226       0.46589733      -2.00240170        1 
H       0.52529964      -1.24482442      -1.45481214        1 
H       4.25283695       0.57856811       0.23091546        1 
H      -0.99151328       3.07387042       2.03130226        1 
H      -2.79347145      -2.53982425      -0.70138989        1 
H      -1.66425170      -2.00003235      -1.93752751        1 
H      -1.07510281      -3.35323440       0.71304099        1 
H       0.02256676      -3.23439640      -0.67675194        1 
H       4.73368405      -1.11923163      -0.07822046        1 
H       4.34950264      -0.02025831      -1.44028152        1 
H      -0.03060180       3.95883849       0.82114600        1 
H       0.79788153       3.06915325       2.13563833        1 
C       0.84565183      -1.64997589       1.78273808        6 
H       0.31072060      -2.19947349       2.56105022        1 
H       1.72553550      -2.21823001       1.48285618        1 
H       1.17320466      -0.69325574       2.19425363        1 
C      -3.31207815      -0.05361805      -0.09669769        6 
H      -3.91587696      -0.79729989       0.42898748        1 
H      -3.34042277       0.88206744       0.45663016        1 
H      -3.75485066       0.12299251      -1.07988216        1 
