35
Lattice="0.0 0.0 0.0 0.0 0.0 0.0 0.0 0.0 0.0" Properties=species:S:1:pos:R:3:Z:I:1 pbc="F F F"
C      -0.75844061       0.15425669      -0.85082862        6 
C       0.68582075      -0.36048095      -0.60171569        6 
C      -1.05569597       1.38439850       0.02955301        6 
C       1.80674813       0.66003227      -0.70197552        6 
O      -2.36591694       1.50870518       0.32463773        8 
O      -0.26072382       2.24662953       0.30358688        8 
O       2.87827194       0.33392942       0.05057137        8 
O       1.78411085       1.60473748      -1.44795334        8 
C       4.01314767       1.21307025      -0.06791300        6 
C      -2.73578578       2.68829165       1.06119747        6 
C      -1.52179035      -1.12298336      -0.32997495        6 
C      -0.98624704      -2.40659667      -1.05748286        6 
C       0.28511730      -2.75837262      -0.23938299        6 
C       0.47312242      -1.44049333       0.53808292        6 
O      -0.88930375      -1.20752361       0.96898141        8 
H      -0.94712413       0.41925658      -1.89245424        1 
H       0.93562769      -0.93838383      -1.50096275        1 
H       3.73415740       2.22998386       0.21014946        1 
H      -2.48058571       3.58707985       0.49811419        1 
H      -1.73039781      -3.20123272      -1.01019778        1 
H      -0.78069492      -2.21948395      -2.11441895        1 
H       0.09443024      -3.57408788       0.46112912        1 
H       1.14977820      -3.01935970      -0.85419967        1 
H       4.75846044       0.81588307       0.61795242        1 
H       4.39217040       1.21199385      -1.09128521        1 
H      -2.22555899       2.71103041       2.02508484        1 
H      -3.81249174       2.61365614       1.19995238        1 
C       1.38486366      -1.46721934       1.74024605        6 
H       1.00487429      -2.20162013       2.45488454        1 
H       2.39917801      -1.74147328       1.45147326        1 
H       1.42153681      -0.49054346       2.22429386        1 
C      -3.03494130      -1.14031930      -0.21738116        6 
H      -3.35571626      -2.13525034       0.09999374        1 
H      -3.40420121      -0.40706040       0.49065346        1 
H      -3.48229169      -0.93288959      -1.19366443        1 
