35
Lattice="0.0 0.0 0.0 0.0 0.0 0.0 0.0 0.0 0.0" Properties=species:S:1:pos:R:3:Z:I:1 pbc="F F F"
C      -0.60720286       0.48667933       0.58243543        6 
C       0.77128975      -0.13610373       0.94436703        6 
C      -1.80631738      -0.39866217       0.30034689        6 
C       1.15168588      -1.53739014       0.49574089        6 
O      -2.91579329       0.22371721       0.78827385        8 
O      -1.86508069      -1.44893889      -0.28321246        8 
O       0.78704478      -1.82497383      -0.75363798        8 
O       1.86195371      -2.25223686       1.17033914        8 
C       1.16075565      -3.11885168      -1.25187614        6 
C      -4.16818091      -0.43976420       0.54086598        6 
C      -0.23332781       1.52070483      -0.56371793        6 
C       0.21958215       2.80149947       0.17103969        6 
C       1.51683760       2.29520434       0.85709959        6 
C       1.71121015       0.89380383       0.19837872        6 
O       1.02092609       1.03045291      -1.05267160        8 
H      -0.92299125       1.07130483       1.44610422        1 
H       0.94234328      -0.11719002       2.01972156        1 
H       0.72628813      -3.90372845      -0.63106822        1 
H      -4.17917232      -1.42410611       1.01162228        1 
H       0.43783420       3.57865726      -0.56464224        1 
H      -0.52900047       3.18611552       0.86654035        1 
H       2.37046969       2.93742784       0.63536736        1 
H       1.43038198       2.22275997       1.94336020        1 
H       0.75696723      -3.16412358      -2.26061726        1 
H       2.24678667      -3.22820120      -1.26425458        1 
H      -4.33602964      -0.55574071      -0.53127411        1 
H      -4.92839129       0.20239864       0.98052203        1 
C       3.14848415       0.47595362      -0.01738571        6 
H       3.68786955       1.26779291      -0.54129947        1 
H       3.63801225       0.29005069       0.94110107        1 
H       3.20934044      -0.43452066      -0.61475851        1 
C      -1.22615372       1.68688769      -1.68968107        6 
H      -0.82896470       2.37863750      -2.43578594        1 
H      -1.42375442       0.72854723      -2.17428724        1 
H      -2.16805531       2.09000062      -1.30988732        1 
