35
Lattice="0.0 0.0 0.0 0.0 0.0 0.0 0.0 0.0 0.0" Properties=species:S:1:pos:R:3:Z:I:1 pbc="F F F"
C       0.08820828       0.95342382       0.51783566        6 
C       0.33782626      -0.57713743       0.83618423        6 
C      -1.29900538       1.24683994      -0.01764599        6 
C      -0.81534574      -1.44463713       0.33296692        6 
O      -2.11331355       1.61030174       0.99182868        8 
O      -1.63939585       1.22225601      -1.17575537        8 
O      -0.49413429      -2.30802010      -0.63674549        8 
O      -1.94204115      -1.32037571       0.75609281        8 
C      -1.58449374      -3.06160678      -1.20446645        6 
C      -3.50398131       1.76485268       0.65623819        6 
C       1.31017001       1.28579757      -0.41195740        6 
C       2.50050019       1.53239136       0.54561172        6 
C       2.73436271       0.11043124       1.10758430        6 
C       1.76696704      -0.75562661       0.23603254        6 
O       1.65960649       0.00809418      -0.97841002        8 
H       0.16740169       1.51733655       1.44698674        1 
H       0.33849140      -0.72359108       1.91845496        1 
H      -2.31542324      -2.38347473      -1.64590177        1 
H      -3.91164891       0.80506743       0.33563429        1 
H       3.35937072       1.87553447      -0.03435415        1 
H       2.28142016       2.28241405       1.30816792        1 
H       3.76377645      -0.21687875       0.95667162        1 
H       2.51396823       0.02286056       2.17380943        1 
H      -1.13066960      -3.68799947      -1.96897804        1 
H      -2.06741456      -3.67157784      -0.44000153        1 
H      -3.62974018       2.50281878      -0.13708649        1 
H      -3.98768025       2.09711719       1.57212916        1 
C       2.30028602      -2.15011204      -0.02730549        6 
H       3.33858214      -2.08080423      -0.35920494        1 
H       2.27611708      -2.74052605       0.89341764        1 
H       1.71892456      -2.66517042      -0.78567330        1 
C       1.12457076       2.32590382      -1.49369315        6 
H       2.06558030       2.46295679      -2.03154517        1 
H       0.34824694       2.02759954      -2.19533875        1 
H       0.84084314       3.28410231      -1.04894822        1 
