35
Lattice="0.0 0.0 0.0 0.0 0.0 0.0 0.0 0.0 0.0" Properties=species:S:1:pos:R:3:Z:I:1 pbc="F F F"
C      -0.84842472       0.29825186      -0.82751682        6 
C       0.39482573      -0.66166262      -0.73612268        6 
C      -0.59272997       1.77231469      -0.54892411        6 
C       1.71715800       0.02087644      -0.39854022        6 
O      -0.37860452       2.02881490       0.75497852        8 
O      -0.57925726       2.61673659      -1.41008828        8 
O       2.63434320      -0.84702469       0.06857312        8 
O       1.98402278       1.16945021      -0.65288442        8 
C       3.95750876      -0.31654329       0.27645653        6 
C       0.00730207       3.37889786       1.06655859        6 
C      -1.87997506      -0.42357286       0.10160459        6 
C      -2.40106990      -1.65639457      -0.68448986        6 
C      -1.18533180      -2.61060648      -0.61402541        6 
C      -0.17123806      -1.78426195       0.22826827        6 
O      -1.03446275      -1.02931201       1.09342514        8 
H      -1.21926227       0.29964157      -1.85227482        1 
H       0.59059649      -1.09840110      -1.72007353        1 
H       3.93169244       0.49934379       0.99978199        1 
H      -0.77386875       4.08030156       0.76894481        1 
H      -3.26665223      -2.07885846      -0.17103906        1 
H      -2.70412755      -1.40153239      -1.70166990        1 
H      -1.43431321      -3.53088959      -0.08292670        1 
H      -0.78564034      -2.88897723      -1.59134298        1 
H       4.54405556      -1.14956645       0.65763556        1 
H       4.37203532       0.04998533      -0.66376900        1 
H       0.93406825       3.62563938       0.54690068        1 
H       0.14989988       3.39793644       2.14499980        1 
C       0.76413307      -2.63535269       1.06002612        6 
H       0.16454555      -3.34099117       1.64008154        1 
H       1.44915504      -3.19690611       0.42271232        1 
H       1.35466526      -2.03141039       1.74582339        1 
C      -2.96297990       0.41999619       0.73941556        6 
H      -3.63644884      -0.21828100       1.31588602        1 
H      -2.53489163       1.16956418       1.40236576        1 
H      -3.54873621       0.92669522      -0.03300472        1 
