35
Lattice="0.0 0.0 0.0 0.0 0.0 0.0 0.0 0.0 0.0" Properties=species:S:1:pos:R:3:Z:I:1 pbc="F F F"
C      -0.07755547       0.61137715      -0.68467007        6 
C      -0.33597510      -0.92923582      -0.56081808        6 
C       1.12786260       1.13683036       0.07600200        6 
C       0.83931515      -1.74912667      -0.04419698        6 
O       1.34322092       2.43379564      -0.24067039        8 
O       1.86161464       0.51195811       0.79915550        8 
O       1.82409410      -1.71957107      -0.97586442        8 
O       0.89936092      -2.40692910       0.96047042        8 
C       3.05589951      -2.35774813      -0.59861335        6 
C       2.46753919       3.06180346       0.40205037        6 
C      -1.43390791       1.16737654      -0.09287289        6 
C      -2.55603345       0.82484897      -1.11440185        6 
C      -2.80082362      -0.67668445      -0.82688622        6 
C      -1.69497644      -0.98354160       0.21766657        6 
O      -1.67240666       0.24183491       0.97600805        8 
H       0.04578888       0.92509770      -1.72127546        1 
H      -0.49123716      -1.31781297      -1.57083026        1 
H       2.89578100      -3.41904770      -0.40199284        1 
H       3.38844827       2.52544928       0.16908244        1 
H      -3.44522447       1.42249292      -0.90753599        1 
H      -2.24956208       1.03001586      -2.14214207        1 
H      -3.77900922      -0.83565403      -0.36931730        1 
H      -2.73368397      -1.31403812      -1.71084815        1 
H       3.72525033      -2.22310422      -1.44588891        1 
H       3.46185202      -1.87957723       0.29418375        1 
H       2.32708394       3.07836149       1.48417789        1 
H       2.50040235       4.07386031       0.00477544        1 
C      -1.99048830      -2.16373522       1.11661679        6 
H      -2.98927032      -2.04455596       1.54368913        1 
H      -1.96939763      -3.09357934       0.54222069        1 
H      -1.25793590      -2.24370953       1.91507148        1 
C      -1.47486406       2.58524498       0.43520144        6 
H      -2.47560020       2.78675573       0.82379239        1 
H      -0.75818672       2.73169950       1.24338794        1 
H      -1.25225346       3.30296006      -0.35615414        1 
