35
Lattice="0.0 0.0 0.0 0.0 0.0 0.0 0.0 0.0 0.0" Properties=species:S:1:pos:R:3:Z:I:1 pbc="F F F"
C      -0.38567745       0.64659819      -0.81598324        6 
C      -0.07487070      -0.85364342      -0.50795699        6 
C       0.43462175       1.68732997      -0.05592482        6 
C       1.37147618      -1.21130335      -0.22017852        6 
O       1.42623322       1.15335787       0.67700834        8 
O       0.17318002       2.86608912      -0.03648948        8 
O       2.14026931      -0.77234432      -1.24811116        8 
O       1.80119208      -1.88560725       0.67992112        8 
C       3.54832489      -1.03017406      -1.13362358        6 
C       2.17656728       2.05760814       1.50669491        6 
C      -1.87481662       0.69203824      -0.29728020        6 
C      -2.71263625      -0.33629907      -1.12568581        6 
C      -2.40172803      -1.67319118      -0.40630028        6 
C      -1.22200540      -1.24754320       0.49528239        6 
O      -1.70108940       0.03022585       0.97004514        8 
H      -0.31090491       0.88132303      -1.87884903        1 
H      -0.25233376      -1.39859052      -1.44115121        1 
H       3.73939315      -2.10023345      -1.04035135        1 
H       1.51888841       2.53060787       2.23693821        1 
H      -3.77241706      -0.08476519      -1.07763826        1 
H      -2.42298796      -0.33542284      -2.17961490        1 
H      -3.23807517      -1.98901427       0.22057000        1 
H      -2.14926515      -2.49223266      -1.08353859        1 
H       3.99173425      -0.63970134      -2.04724228        1 
H       3.95702779      -0.51568844      -0.26173079        1 
H       2.65284704       2.82607820       0.89644365        1 
H       2.92051052       1.43952210       2.00418768        1 
C      -0.92254620      -2.15898681       1.66201536        6 
H      -1.84156756      -2.31349050       2.23343273        1 
H      -0.55714465      -3.12582572       1.31222549        1 
H      -0.16191897      -1.73191461       2.31290063        1 
C      -2.56762802       2.02635947      -0.12390306        6 
H      -3.58605065       1.84948935       0.23013803        1 
H      -2.05217965       2.66797561       0.58584709        1 
H      -2.61656359       2.55277311      -1.07992173        1 
