35
Lattice="0.0 0.0 0.0 0.0 0.0 0.0 0.0 0.0 0.0" Properties=species:S:1:pos:R:3:Z:I:1 pbc="F F F"
C      -0.77992966      -0.04211665      -0.74232652        6 
C       0.74493130      -0.33261842      -0.70176863        6 
C      -1.18870738       1.15481902       0.09825581        6 
C       1.58977996       0.92960172      -0.62524846        6 
O      -2.41232920       1.58815354      -0.27944420        8 
O      -0.54663293       1.66266235       0.98164650        8 
O       2.73323472       0.78239356       0.06158514        8 
O       1.29372524       1.94095502      -1.21545820        8 
C       3.58336731       1.94471999       0.12007252        6 
C      -2.94565175       2.69901899       0.46372810        6 
C      -1.31717215      -1.35155245      -0.05796118        6 
C      -0.93664895      -2.56286453      -0.96401377        6 
C       0.54688620      -2.80189046      -0.57618900        6 
C       0.83348484      -1.55493165       0.29736996        6 
O      -0.39911506      -1.46656149       1.03878372        8 
H      -1.17300909       0.08292723      -1.74991373        1 
H       1.02238150      -0.71270889      -1.69188040        1 
H       3.04528325       2.78110124       0.56719424        1 
H      -2.29670873       3.56993424       0.36227818        1 
H      -1.55991900      -3.42549827      -0.72404929        1 
H      -1.07709621      -2.33727003      -2.02370768        1 
H       0.65192110      -3.69969387       0.03613408        1 
H       1.22151604      -2.88781625      -1.43053676        1 
H       4.42760537       1.65215991       0.74043912        1 
H       3.91768538       2.22355139      -0.88048125        1 
H      -3.03978034       2.44223386       1.52038339        1 
H      -3.92335805       2.89565783       0.02920865        1 
C       1.99538773      -1.68171906       1.25450301        6 
H       1.85184152      -2.57850607       1.86232917        1 
H       2.93784613      -1.76949605       0.71195734        1 
H       2.05897161      -0.81467998       1.91022876        1 
C      -2.74488739      -1.35000506       0.44238688        6 
H      -2.97220259      -2.31741646       0.89579004        1 
H      -2.90116712      -0.57564593       1.19431216        1 
H      -3.44156962      -1.17451780      -0.38029132        1 
