35
Lattice="0.0 0.0 0.0 0.0 0.0 0.0 0.0 0.0 0.0" Properties=species:S:1:pos:R:3:Z:I:1 pbc="F F F"
C       0.04328791       0.64100741       0.68668716        6 
C       0.46867166      -0.85335052       0.59820332        6 
C      -1.14561100       0.99477536      -0.18242642        6 
C      -0.61234163      -1.84796378       0.21233696        6 
O      -1.86764712       1.98781666       0.38610531        8 
O      -1.41434557       0.50961651      -1.25244786        8 
O      -1.79609742      -1.48266059       0.75725396        8 
O      -0.44510416      -2.90412729      -0.34242580        8 
C      -2.90911388      -2.35587501       0.49697737        6 
C      -3.00197640       2.44743117      -0.37106356        6 
C       1.33105043       1.33002464       0.10505677        6 
C       2.49692341       1.08678662       1.10692205        6 
C       2.90378498      -0.37395465       0.77552318        6 
C       1.80106800      -0.77925112      -0.23687033        6 
O       1.64840390       0.44751951      -0.97735815        8 
H      -0.16069877       0.96459756       1.70568134        1 
H       0.72018627      -1.18676268       1.61157531        1 
H      -2.70076928      -3.36350304       0.85934573        1 
H      -3.69062466       1.62283761      -0.56109411        1 
H       3.31138823       1.78518258       0.90799865        1 
H       2.18243244       1.22915731       2.14322977        1 
H       3.87499335      -0.40680788       0.27862612        1 
H       2.94275989      -1.03189978       1.64580514        1 
H      -3.75030105      -1.92129279       1.03294401        1 
H      -3.11409851      -2.39041507      -0.57403321        1 
H      -2.68027606       2.87084993      -1.32405684        1 
H      -3.47484289       3.20844268       0.24587080        1 
C       2.15820069      -1.91023582      -1.17323811        6 
H       3.11065833      -1.67982087      -1.65705815        1 
H       2.25387549      -2.85004811      -0.62760333        1 
H       1.39361561      -2.04338919      -1.93689002        1 
C       1.17933269       2.75342281      -0.38507732        6 
H       2.13423822       3.11403118      -0.77349113        1 
H       0.44103543       2.81794947      -1.18674458        1 
H       0.86488072       3.40697349       0.43203511        1 
