35
Lattice="0.0 0.0 0.0 0.0 0.0 0.0 0.0 0.0 0.0" Properties=species:S:1:pos:R:3:Z:I:1 pbc="F F F"
C      -0.58609949       0.76682932      -0.78014010        6 
C      -0.15165402      -0.74387343      -0.77616767        6 
C       0.35190377       1.81849983      -0.20304103        6 
C       1.35267777      -0.97954489      -0.79650045        6 
O       1.48628918       1.32194787       0.31099771        8 
O       0.06465467       2.99112213      -0.15049945        8 
O       1.86976157      -1.48642772       0.33281328        8 
O       2.00939470      -0.77261397      -1.79056305        8 
C       3.29224508      -1.69219647       0.33027163        6 
C       2.39052163       2.26995825       0.90561332        6 
C      -1.89400616       0.66677446       0.09883594        6 
C      -2.92945272      -0.18386714      -0.69791372        6 
C      -2.44499046      -1.62805030      -0.42389623        6 
C      -1.10570772      -1.36665818       0.31055056        6 
O      -1.45458247      -0.23376288       1.12976787        8 
H      -0.82301831       1.10845711      -1.78838288        1 
H      -0.44358848      -1.14659601      -1.74856753        1 
H       3.80944508      -0.74860949       0.14896766        1 
H       1.89571127       2.81083020       1.71294848        1 
H      -3.93218664      -0.01523311      -0.30324816        1 
H      -2.94203209       0.07782015      -1.75799420        1 
H      -3.12568238      -2.15109675       0.25067512        1 
H      -2.32521060      -2.23388528      -1.32455179        1 
H       3.53064765      -2.07909278       1.31879015        1 
H       3.57641333      -2.40789265      -0.44261085        1 
H       2.74208128       2.97959496       0.15529683        1 
H       3.21672655       1.67684341       1.29083924        1 
C      -0.63590410      -2.51773163       1.17278925        6 
H      -1.46761108      -2.86038766       1.79288319        1 
H      -0.30277692      -3.35163717       0.54981506        1 
H       0.18954574      -2.22113823       1.81467816        1 
C      -2.47218079       1.92529917       0.70856191        6 
H      -3.37490715       1.66259518       1.26496792        1 
H      -1.77029156       2.40573075       1.38795266        1 
H      -2.73231088       2.64514601      -0.06944396        1 
