35
Lattice="0.0 0.0 0.0 0.0 0.0 0.0 0.0 0.0 0.0" Properties=species:S:1:pos:R:3:Z:I:1 pbc="F F F"
C      -0.30253278       0.60599040      -0.84147771        6 
C      -0.15546654      -0.93845406      -0.51706749        6 
C       0.87559500       1.41816279      -0.30764052        6 
C       1.22752512      -1.36120430      -0.05016009        6 
O       0.67533845       1.92566288       0.91949246        8 
O       1.93049923       1.50909150      -0.89099726        8 
O       2.06582915      -1.33716586      -1.10448860        8 
O       1.54664125      -1.76257904       1.04223024        8 
C       3.44991724      -1.61528351      -0.83469974        6 
C       1.80546372       2.57784064       1.52793606        6 
C      -1.71496344       0.87765672      -0.24294205        6 
C      -2.74578736       0.09495345      -1.11563487        6 
C      -2.60273736      -1.34813314      -0.57376517        6 
C      -1.40558881      -1.19226038       0.39948875        6 
O      -1.67324934       0.10362971       0.96814622        8 
H      -0.28323046       0.75708371      -1.92092972        1 
H      -0.28291330      -1.48057090      -1.45627930        1 
H       3.56384971      -2.59954832      -0.37835893        1 
H       2.12416087       3.43142683       0.92797452        1 
H      -3.74902321       0.48838401      -0.94626049        1 
H      -2.53243054       0.18430330      -2.18315382        1 
H      -3.48625852      -1.64697600      -0.00643888        1 
H      -2.42517153      -2.09878553      -1.34660134        1 
H       3.94503841      -1.57698019      -1.80214533        1 
H       3.86026872      -0.85250622      -0.17140788        1 
H       2.63446442       1.87605842       1.62822798        1 
H       1.45705660       2.90104047       2.50610952        1 
C      -1.32064649      -2.24548217       1.48171024        6 
H      -2.28375085      -2.31025930       1.99336011        1 
H      -1.09471015      -3.22147138       1.04409622        1 
H      -0.54053875      -2.00890514       2.20100875        1 
C      -2.11477802       2.31495536       0.01983593        6 
H      -3.13119373       2.34303273       0.41879241        1 
H      -1.44486794       2.79150245       0.73097556        1 
H      -2.10112679       2.88222542      -0.91572554        1 
