35
Lattice="0.0 0.0 0.0 0.0 0.0 0.0 0.0 0.0 0.0" Properties=species:S:1:pos:R:3:Z:I:1 pbc="F F F"
C       0.00225782       0.69384523       0.61691720        6 
C       0.45195116      -0.80468888       0.67155276        6 
C      -1.37853581       0.99511760       0.07905559        6 
C      -0.43061351      -1.76562446      -0.11537267        6 
O      -1.91214649       2.03991032       0.76129356        8 
O      -1.94390498       0.45864615      -0.83911639        8 
O      -1.34809905      -2.31396250       0.72167473        8 
O      -0.38724252      -2.00230085      -1.29179445        8 
C      -2.34226701      -3.14340772       0.09226616        6 
C      -3.19885903       2.49421309       0.30335767        6 
C       1.17646599       1.35588998      -0.21662111        6 
C       2.32805483       1.58792086       0.78960264        6 
C       2.75941185       0.12837340       1.08697031        6 
C       1.89274026      -0.68312750       0.07477793        6 
O       1.68000382       0.26318988      -0.98775745        8 
H       0.01654351       1.10632540       1.62508321        1 
H       0.46932886      -1.15022097       1.70499440        1 
H      -1.87543406      -4.01103076      -0.37721807        1 
H      -3.93790158       1.69613696       0.38953716        1 
H       3.12794791       2.14471940       0.29703240        1 
H       2.01592198       2.14961545       1.67186899        1 
H       3.81944743      -0.02699512       0.88101543        1 
H       2.57436636      -0.17593271       2.11992511        1 
H      -3.00993530      -3.45595541       0.89256281        1 
H      -2.88247579      -2.57161594      -0.66369073        1 
H      -3.14154305       2.81720578      -0.73731520        1 
H      -3.45909952       3.32876822       0.95072757        1 
C       2.54730769      -1.94724313      -0.43901206        6 
H       3.54305318      -1.71365417      -0.82239335        1 
H       2.65709995      -2.67073774       0.37464555        1 
H       1.95876756      -2.39600203      -1.23678096        1 
C       0.81162236       2.52300129      -1.10466119        6 
H       1.69568670       2.86144819      -1.64901747        1 
H       0.04990888       2.23531140      -1.83228110        1 
H       0.43307732       3.35464569      -0.50525714        1 
