35
Lattice="0.0 0.0 0.0 0.0 0.0 0.0 0.0 0.0 0.0" Properties=species:S:1:pos:R:3:Z:I:1 pbc="F F F"
C       0.16810620       0.71167751       0.60693438        6 
C       0.41121970      -0.84572816       0.64562669        6 
C      -1.14391314       1.12131079      -0.02483274        6 
C      -0.66427737      -1.63653793      -0.08759635        6 
O      -1.96017425       1.68392795       0.89364309        8 
O      -1.43713149       1.01109952      -1.19054046        8 
O      -1.84835924      -1.45909179       0.55096557        8 
O      -0.54117849      -2.34618558      -1.04975826        8 
C      -3.00003626      -2.04083607      -0.08743451        6 
C      -3.25786660       2.08269587       0.41817589        6 
C       1.45223893       1.20253863      -0.16174059        6 
C       2.59145832       1.22089529       0.88646411        6 
C       2.81154335      -0.29494924       1.11813476        6 
C       1.85528908      -0.93432185       0.06428514        6 
O       1.80891161       0.06939683      -0.96543831        8 
H       0.16360974       1.10617923       1.62153216        1 
H       0.37435998      -1.18912160       1.68216329        1 
H      -2.88086579      -3.12036453      -0.18748940        1 
H      -3.80835630       1.21478214       0.05097539        1 
H       3.47647322       1.68805609       0.44985382        1 
H       2.32657683       1.77313850       1.79004329        1 
H       3.84073911      -0.58861627       0.90627051        1 
H       2.57815794      -0.61947293       2.13513808        1 
H      -3.84052293      -1.80751838       0.56306017        1 
H      -3.13921972      -1.59656449      -1.07436847        1 
H      -3.16541939       2.81409511      -0.38590959        1 
H      -3.76156972       2.51799342       1.27843254        1 
C       2.33861934      -2.26200252      -0.48057863        6 
H       3.37680007      -2.16224782      -0.80585727        1 
H       2.29780129      -3.02613001       0.30157609        1 
H       1.72630563      -2.59053451      -1.31560015        1 
C       1.32129116       2.44779428      -1.00977252        6 
H       2.28410971       2.68021485      -1.46970116        1 
H       0.58059440       2.30539457      -1.79568219        1 
H       1.02233314       3.29916934      -0.39101443        1 
