35
Lattice="0.0 0.0 0.0 0.0 0.0 0.0 0.0 0.0 0.0" Properties=species:S:1:pos:R:3:Z:I:1 pbc="F F F"
C      -0.78311872       0.26651434      -0.93028364        6 
C       0.45667494      -0.64600711      -0.63908769        6 
C      -0.60049542       1.73556782      -0.56603652        6 
C       1.74150004       0.02667457      -0.20180483        6 
O      -0.76865017       1.99770349       0.73370742        8 
O      -0.36293110       2.58016580      -1.39980592        8 
O       2.79923214      -0.64459582      -0.71736791        8 
O       1.86448913       0.98012266       0.52546362        8 
C       4.09954611      -0.16183607      -0.33013465        6 
C      -0.46289998       3.33746912       1.15441558        6 
C      -1.89393655      -0.50642931      -0.14334708        6 
C      -2.12422945      -1.86807642      -0.87028827        6 
C      -0.92438940      -2.71259732      -0.36999864        6 
C      -0.13241118      -1.65515766       0.43342462        6 
O      -1.18599205      -0.90423329       1.04429622        8 
H      -0.98945708       0.27330461      -2.00011175        1 
H       0.71247492      -1.20607050      -1.53729667        1 
H       4.22012990      -0.21932701       0.75283513        1 
H      -1.07396273       4.06201849       0.61412506        1 
H      -3.07586847      -2.29862567      -0.55519135        1 
H      -2.15514577      -1.75297816      -1.95590672        1 
H      -1.25337967      -3.50546900       0.30524719        1 
H      -0.33564264      -3.16758658      -1.16847691        1 
H       4.81120122      -0.81423151      -0.83107179        1 
H       4.23218267       0.87185821      -0.65211053        1 
H       0.59384337       3.54308620       0.97926264        1 
H      -0.68443061       3.36169521       2.21906467        1 
C       0.82421195      -2.18430026       1.47626415        6 
H       0.28784572      -2.83475752       2.17050206        1 
H       1.62244272      -2.76301606       1.00515069        1 
H       1.26971874      -1.36585869       2.04523829        1 
C      -3.16598198       0.24222460       0.19088319        6 
H      -3.85643235      -0.41980307       0.71801969        1 
H      -2.96005066       1.10533796       0.82064843        1 
H      -3.65333984       0.58182924      -0.72781778        1 
