29
Lattice="0.0 0.0 0.0 0.0 0.0 0.0 0.0 0.0 0.0" Properties=species:S:1:pos:R:3:Z:I:1 pbc="F F F"
C      -0.72090265       0.78356739       0.70019932        6 
C       0.74862792       0.30340298       0.99556365        6 
C      -1.57408140      -0.15750949      -0.12204755        6 
C       1.05282912      -1.12001380       0.57595133        6 
O      -2.75977562      -0.37958762       0.48484124        8 
O      -1.27979711      -0.62611508      -1.19454091        8 
O       2.19548564      -1.22782892      -0.12689216        8 
O       0.36628474      -2.06564447       0.88166273        8 
C       2.53477294      -2.55522180      -0.57288942        6 
C      -3.65954106      -1.26936051      -0.20175909        6 
C      -0.46602342       2.16433172      -0.03059024        6 
C       0.21288837       1.87306824      -1.35843056        6 
C       1.45740327       1.46386166      -1.09549921        6 
C       1.63086883       1.46348429       0.41298693        6 
C       0.74140276       2.67114209       0.79054508        6 
H       2.68143153      -3.21956522       0.28006337        1 
H      -3.19287984      -2.24601795      -0.33657261        1 
H       2.17846447       1.06817771      -1.79611999        1 
H       3.45860625      -2.44346564      -1.13620472        1 
H       1.74068049      -2.95151106      -1.20688353        1 
H      -4.53535896      -1.34640911       0.43882862        1 
H      -3.93129315      -0.86152703      -1.17688474        1 
H       2.65433061       1.45479169       0.78304849        1 
H      -1.35416847       2.79438754      -0.06371100        1 
H       1.13505786       3.61580440       0.41215357        1 
H       0.53986250       2.75584863       1.86298903        1 
H      -0.28493902       1.87562706      -2.31772537        1 
H      -1.24281253       0.96855852       1.63774824        1 
H       0.86930397       0.28561251       2.08398216        1 
