29
Lattice="0.0 0.0 0.0 0.0 0.0 0.0 0.0 0.0 0.0" Properties=species:S:1:pos:R:3:Z:I:1 pbc="F F F"
C       0.12836755       1.04863601       0.64663588        6 
C       0.79919636      -0.32929662       1.03755628        6 
C      -1.16740035       1.02907038      -0.13750331        6 
C       0.09035554      -1.63097156       0.72233596        6 
O      -2.18350224       1.48804997       0.63665519        8 
O      -1.32588746       0.67044408      -1.27683778        8 
O      -0.11089285      -1.82820608      -0.58768999        8 
O      -0.21862417      -2.43656183       1.57244692        8 
C      -0.79146498      -3.03826368      -0.96058020        6 
C      -3.48272477       1.51586360       0.01841833        6 
C       1.29737819       1.78687935      -0.11861960        6 
C       1.55772910       1.04103686      -1.41460581        6 
C       2.12134443      -0.12828366      -1.09855377        6 
C       2.24707544      -0.18556276       0.41236545        6 
C       2.50016749       1.30674744       0.72346813        6 
H      -0.20878151      -3.91280797      -0.66602376        1 
H      -3.78572264       0.51010480      -0.27754179        1 
H       2.33471291      -0.94982911      -1.76724444        1 
H      -0.89338666      -2.98727479      -2.04217860        1 
H      -1.77268938      -3.08512851      -0.48585855        1 
H      -4.15633001       1.91038692       0.77603471        1 
H      -3.47420071       2.16029346      -0.86210755        1 
H       2.95022375      -0.91178490       0.81874624        1 
H       1.13521659       2.86134369      -0.19967800        1 
H       3.45287316       1.65968845       0.32604634        1 
H       2.42514399       1.55624638       1.78597871        1 
H       1.21839027       1.35945001      -2.38954159        1 
H      -0.07925208       1.58603095       1.57161203        1 
H       0.90008595      -0.34856560       2.12268916        1 
