29
Lattice="0.0 0.0 0.0 0.0 0.0 0.0 0.0 0.0 0.0" Properties=species:S:1:pos:R:3:Z:I:1 pbc="F F F"
C      -0.67375999       0.86828687       0.77392200        6 
C       0.73545679       0.17872474       0.85304089        6 
C      -1.76430648       0.14564565       0.00603400        6 
C       0.92548084      -1.11157391       0.08973883        6 
O      -2.28665508      -0.84412847       0.76337486        8 
O      -2.15434696       0.41540722      -1.10147367        8 
O       2.12477585      -1.65611719       0.40298622        8 
O       0.16608673      -1.60842064      -0.70398423        8 
C       2.45816878      -2.88005311      -0.27826924        6 
C      -3.23088226      -1.70346380       0.09993932        6 
C      -0.33007338       2.28129386       0.18619778        6 
C       0.19110083       2.07800698      -1.22865736        6 
C       1.40156866       1.51768551      -1.13901176        6 
C       1.70413885       1.32241724       0.33662980        6 
C       0.99672561       2.55920091       0.93152857        6 
H       1.74309898      -3.66437444      -0.02438146        1 
H      -2.74265978      -2.21298296      -0.73234227        1 
H       2.00871365       1.13811565      -1.95035282        1 
H       3.45431411      -3.14355146       0.07027571        1 
H       2.45481414      -2.72985111      -1.35885034        1 
H      -3.55349969      -2.41899476       0.85353392        1 
H      -4.07950592      -1.12789927      -0.27234076        1 
H       2.74305265       1.14634173       0.60770773        1 
H      -1.13702419       3.00306805       0.30201757        1 
H       1.46394398       3.49387452       0.61829058        1 
H       0.90568956       2.53414932       2.02174412        1 
H      -0.38851200       2.24894872      -2.12335852        1 
H      -1.04377058       0.98111743       1.79545798        1 
H       0.98189749      -0.03712984       1.89503499        1 
