29
Lattice="0.0 0.0 0.0 0.0 0.0 0.0 0.0 0.0 0.0" Properties=species:S:1:pos:R:3:Z:I:1 pbc="F F F"
C       0.98734555      -0.60966071      -0.81291979        6 
C       0.44482692       0.86520653      -0.95418548        6 
C       0.09565522      -1.76578843      -0.41935637        6 
C      -1.03168469       1.14587635      -0.73549129        6 
O      -0.94078342      -1.42279888       0.36421754        8 
O       0.31534245      -2.90328489      -0.76623786        8 
O      -1.37471405       1.34669246       0.54813779        8 
O      -1.80879408       1.29576883      -1.65133834        8 
C      -2.76532708       1.60952653       0.79343043        6 
C      -1.81455670      -2.49393858       0.76607373        6 
C       2.22380693      -0.43605096       0.15685871        6 
C       1.69737829      -0.02653442       1.52004680        6 
C       1.23612763       1.22297560       1.41322174        6 
C       1.44083890       1.66990193      -0.02666342        6 
C       2.75533542       0.92220808      -0.35539560        6 
H      -3.08201019       2.52210032       0.28610720        1 
H      -1.26631842      -3.23558112       1.34863961        1 
H       0.70131223       1.78825364       2.16168511        1 
H      -2.85365869       1.71891707       1.87237349        1 
H      -3.37622841       0.77687347       0.44053247        1 
H      -2.58638492      -2.02467751       1.37220916        1 
H      -2.25150460      -2.97609367      -0.10951591        1 
H       1.41526132       2.74394173      -0.20686221        1 
H       2.89708649      -1.29098944       0.12432760        1 
H       3.60009070       1.28438695       0.23172130        1 
H       3.01394802       0.92311537      -1.41845577        1 
H       1.61163358      -0.68638193       2.37312260        1 
H       1.38391797      -0.91564613      -1.78236427        1 
H       0.61037960       1.16921898      -1.98786102        1 
