29
Lattice="0.0 0.0 0.0 0.0 0.0 0.0 0.0 0.0 0.0" Properties=species:S:1:pos:R:3:Z:I:1 pbc="F F F"
C      -0.62794976       0.72198501      -0.84687617        6 
C      -0.51536179      -0.85899695      -0.72742060        6 
C       0.34342498       1.57905424      -0.05362658        6 
C       0.63489773      -1.43614780       0.07158489        6 
O       1.61212249       1.39420409      -0.47114259        8 
O       0.04378051       2.36840985       0.80877992        8 
O       1.76143726      -1.46690716      -0.66915831        8 
O       0.56200562      -1.90559012       1.18212798        8 
C       2.93195784      -1.99098972      -0.02105505        6 
C       2.62236487       2.15792067       0.21191008        6 
C      -2.12394349       0.97171539      -0.43815126        6 
C      -2.24333330       0.64699207       1.04577798        6 
C      -2.12251704      -0.67753572       1.17837549        6 
C      -1.93634998      -1.26278656      -0.21391494        6 
C      -2.79348871      -0.28115518      -1.04726790        6 
H       3.17962142      -1.39564051       0.85960916        1 
H       2.60040754       1.94765126       1.28224619        1 
H      -2.04387268      -1.24420377       2.09440790        1 
H       3.72653476      -1.92644642      -0.76129967        1 
H       2.77234773      -3.02688128       0.28242508        1 
H       3.56716533       1.84036051      -0.22394685        1 
H       2.46691576       3.22645326       0.05410539        1 
H      -2.13982386      -2.32750764      -0.32286207        1 
H      -2.49569147       1.94656216      -0.74971954        1 
H      -3.85565487      -0.34514883      -0.80781248        1 
H      -2.65242016      -0.37972485      -2.12849579        1 
H      -2.28429820       1.38632748       1.83159817        1 
H      -0.47239166       0.98804444      -1.89603448        1 
H      -0.37913091      -1.24289878      -1.74112791        1 
