29
Lattice="0.0 0.0 0.0 0.0 0.0 0.0 0.0 0.0 0.0" Properties=species:S:1:pos:R:3:Z:I:1 pbc="F F F"
C      -0.20717990       0.87707085       0.93682827        6 
C       1.16014717       0.10032955       0.87668641        6 
C      -1.44861016       0.05475811       0.66509417        6 
C       1.16565804      -1.34485798       0.42652976        6 
O      -2.31177101       0.68458750      -0.15740409        8 
O      -1.67304765      -1.02064056       1.16563772        8 
O       0.44587907      -1.55279516      -0.69290091        8 
O       1.79747254      -2.21227512       0.98110810        8 
C       0.35013807      -2.91716158      -1.13747688        6 
C      -3.53578060      -0.01704852      -0.44504619        6 
C       0.05749742       2.14796043       0.05688281        6 
C       0.24932646       1.69045258      -1.37828711        6 
C       1.41596788       1.04168383      -1.44299733        6 
C       2.02634412       1.05073079      -0.05124447        6 
C       1.52674725       2.42478923       0.45362674        6 
H       1.33687485      -3.31143583      -1.38521996        1 
H      -4.10783639      -0.18051045       0.46954817        1 
H       1.81218724       0.49280927      -2.28628035        1 
H      -0.28440709      -2.88989864      -2.02090491        1 
H      -0.10131069      -3.53313276      -0.35864709        1 
H      -4.08381784       0.62575189      -1.13054828        1 
H      -3.32027811      -0.98012602      -0.90988141        1 
H       3.09329594       0.84356233       0.01607517        1 
H      -0.66704861       2.94388178       0.21720480        1 
H       1.96102267       3.25590536      -0.10393198        1 
H       1.67452681       2.57900821       1.52653420        1 
H      -0.49682274       1.77881141      -2.15539147        1 
H      -0.34228816       1.20356928       1.97427192        1 
H       1.61454226       0.08136938       1.86627816        1 
