29
Lattice="0.0 0.0 0.0 0.0 0.0 0.0 0.0 0.0 0.0" Properties=species:S:1:pos:R:3:Z:I:1 pbc="F F F"
C      -0.66977428       0.12235621       0.93941421        6 
C       0.62668331       0.97885230       0.67865420        6 
C      -0.74052286      -1.23485016       0.26580819        6 
C       1.73562686       0.32102551      -0.11928593        6 
O      -2.02504114      -1.63337148       0.13425311        8 
O       0.19570298      -1.92339175      -0.05725588        8 
O       2.56652369      -0.35372933       0.69986800        8 
O       1.89898380       0.41451241      -1.31104857        8 
C       3.55528575      -1.17082102       0.04918700        6 
C      -2.22844430      -2.93753906      -0.44054730        6 
C      -1.82075450       1.10464047       0.49374221        6 
C      -1.71495530       1.20615685      -1.02032948        6 
C      -0.59912520       1.88812243      -1.29959111        6 
C       0.04421158       2.27834118       0.02310275        6 
C      -1.21463049       2.46240847       0.90303887        6 
H       3.05899222      -1.92161711      -0.56727400        1 
H      -1.76537506      -3.70571362       0.18084466        1 
H      -0.15061802       2.04687478      -2.26884015        1 
H       4.11641551      -1.64360091       0.85244215        1 
H       4.21238958      -0.56089266      -0.57270542        1 
H      -3.30728606      -3.07248282      -0.47556877        1 
H      -1.80220349      -2.98184427      -1.44385506        1 
H       0.76144342       3.09706296      -0.01439440        1 
H      -2.79473458       0.84078252       0.89879866        1 
H      -1.83115392       3.30465086       0.58483481        1 
H      -0.99661032       2.54613153       1.97219132        1 
H      -2.36531510       0.69419564      -1.71656980        1 
H      -0.75235955      -0.08548346       2.01142053        1 
H       1.05671001       1.23289460       1.64913878        1 
