29
Lattice="0.0 0.0 0.0 0.0 0.0 0.0 0.0 0.0 0.0" Properties=species:S:1:pos:R:3:Z:I:1 pbc="F F F"
C      -0.22442638       1.14527134       0.59953908        6 
C       0.74745294      -0.01456522       1.07651657        6 
C      -1.39711723       0.67387017      -0.23220754        6 
C       0.29073423      -1.40236521       0.66754183        6 
O      -2.53944192       0.73590997       0.48021613        8 
O      -1.34850859       0.29087265      -1.37724043        8 
O       1.06947212      -1.98375524      -0.25868990        8 
O      -0.66985040      -1.94648127       1.16287005        8 
C       0.64119611      -3.27824152      -0.72240114        6 
C      -3.71451431       0.20795632      -0.16280458        6 
C       0.76020527       2.13154286      -0.12158967        6 
C       1.31598573       1.44672292      -1.35806115        6 
C       2.14742386       0.48580476      -0.94678367        6 
C       2.14743522       0.49562420       0.57411843        6 
C       1.97529209       2.01173034       0.82937098        6 
H       0.58021106      -3.98222567       0.10852030        1 
H      -3.56358035      -0.84354161      -0.41050219        1 
H       2.63722364      -0.25941716      -1.55544257        1 
H       1.39616083      -3.59233926      -1.43981067        1 
H      -0.33454886      -3.19715484      -1.20316285        1 
H      -4.51582653       0.31808485       0.56435096        1 
H      -3.93917956       0.76788692      -1.07200933        1 
H       2.98413537      -0.00439307       1.06046581        1 
H       0.33258686       3.12340150      -0.26656096        1 
H       2.83170322       2.59278740       0.48531445        1 
H       1.74738583       2.26416142       1.86976882        1 
H       0.98822894       1.64055318      -2.36895977        1 
H      -0.63685607       1.63095662       1.48352211        1 
H       0.73071211      -0.03203871       2.16834143        1 
