29
Lattice="0.0 0.0 0.0 0.0 0.0 0.0 0.0 0.0 0.0" Properties=species:S:1:pos:R:3:Z:I:1 pbc="F F F"
C      -0.67705129       0.56353282      -0.98798872        6 
C      -0.56646792      -0.97203045      -0.68299914        6 
C       0.41968246       1.50336006      -0.53270071        6 
C       0.70654679      -1.55297459      -0.11012899        6 
O       0.79370756       1.30842349       0.74658883        8 
O       0.86487235       2.38988239      -1.22344720        8 
O       1.80120517      -0.92888166      -0.59144662        8 
O       0.75598362      -2.56135621       0.55221409        8 
C       3.07228267      -1.47928513      -0.20392520        6 
C       1.84263336       2.15911081       1.23575677        6 
C      -2.08297696       0.90557989      -0.32394452        6 
C      -1.94388617       0.73372550       1.18125888        6 
C      -1.81835885      -0.57369268       1.43109972        6 
C      -1.88024964      -1.30200139       0.09941889        6 
C      -2.85955064      -0.38573689      -0.67254898        6 
H       3.19071028      -1.43282464       0.87985184        1 
H       1.55003486       3.20816319       1.17325405        1 
H      -1.59245486      -1.04539560       2.37749499        1 
H       3.81743743      -0.86033269      -0.69874508        1 
H       3.15560421      -2.51715307      -0.52980312        1 
H       1.99572313       1.86353733       2.27157835        1 
H       2.75418585       2.00693889       0.65464248        1 
H      -2.09956066      -2.36661242       0.13735780        1 
H      -2.49258874       1.85280462      -0.67204980        1 
H      -3.86478837      -0.39391970      -0.24881423        1 
H      -2.90960862      -0.59434310      -1.74575813        1 
H      -1.84027057       1.54650056       1.88653336        1 
H      -0.75343964       0.72386528      -2.06237569        1 
H      -0.63121889      -1.48324304      -1.65274688        1 
