29
Lattice="0.0 0.0 0.0 0.0 0.0 0.0 0.0 0.0 0.0" Properties=species:S:1:pos:R:3:Z:I:1 pbc="F F F"
C      -0.76669652      -0.17358658      -0.81755188        6 
C       0.64874750      -0.85601054      -0.79664891        6 
C      -0.93614549       1.12052113      -0.05774894        6 
C       1.74732299      -0.15348176      -0.01837059        6 
O      -2.06891678       1.74257200      -0.46357379        8 
O      -0.22050982       1.55666169       0.80881464        8 
O       2.27876478       0.84065847      -0.76520586        8 
O       2.11874538      -0.41837552       1.09594695        8 
C       3.22641126       1.68563022      -0.08774320        6 
C      -2.39314769       2.96918015       0.21560858        6 
C      -1.71226778      -1.32577920      -0.27533818        6 
C      -1.34427023      -1.56751567       1.17817466        6 
C      -0.13554758      -2.13872732       1.19737519        6 
C       0.32367565      -2.29185428      -0.24622150        6 
C      -1.03497592      -2.54388099      -0.94199441        6 
H       2.74227825       2.17982256       0.75601135        1 
H      -1.59509297       3.70122115       0.08264927        1 
H       0.47865980      -2.34467010       2.06055895        1 
H       3.54906396       2.41423860      -0.82862389        1 
H       4.07442462       1.10080464       0.27124750        1 
H      -3.31483411       3.31999300      -0.24357696        1 
H      -2.53964658       2.78873929       1.28173542        1 
H       1.12164569      -3.01131359      -0.42363451        1 
H      -2.76235929      -1.14346134      -0.49721054        1 
H      -1.49059020      -3.48840876      -0.64142783        1 
H      -0.99428898      -2.48217078      -2.03403973        1 
H      -1.91284945      -1.21194590       2.02716318        1 
H      -1.05288650       0.03328385      -1.85074025        1 
H       0.99680883      -0.93150085      -1.82897462        1 
