29
Lattice="0.0 0.0 0.0 0.0 0.0 0.0 0.0 0.0 0.0" Properties=species:S:1:pos:R:3:Z:I:1 pbc="F F F"
C      -0.70043378       0.85294861       0.77975123        6 
C       0.73084125       0.21338741       0.85401144        6 
C      -1.77679100       0.07993631       0.04414911        6 
C       0.96768290      -1.04571339       0.05358130        6 
O      -2.12659702      -1.01777189       0.74898589        8 
O      -2.30614535       0.41153386      -0.98643924        8 
O       2.13405094      -1.61978169       0.43101858        8 
O       0.26675487      -1.49401325      -0.81927893        8 
C       2.50600763      -2.81497578      -0.28046020        6 
C      -3.05475513      -1.90613401       0.10173395        6 
C      -0.42260399       2.27601832       0.18788808        6 
C       0.09699692       2.08929145      -1.22872683        6 
C       1.32953867       1.57835148      -1.14447764        6 
C       1.64927626       1.39986717       0.33037564        6 
C       0.89514980       2.60831570       0.92589706        6 
H       1.74966410      -3.58972763      -0.14473935        1 
H      -2.62659999      -2.26924559      -0.83370511        1 
H       1.94447515       1.21713881      -1.95828735        1 
H       3.45469889      -3.12617197       0.15122955        1 
H       2.61769105      -2.60725677      -1.34579739        1 
H      -3.20654897      -2.72737126       0.79914840        1 
H      -3.99781764      -1.39625347      -0.10150139        1 
H       2.69655030       1.26751027       0.59506307        1 
H      -1.25903505       2.96228500       0.30691772        1 
H       1.32441029       3.56002121       0.60928715        1 
H       0.81048794       2.58177204       2.01658335        1 
H      -0.49656376       2.23071625      -2.11975671        1 
H      -1.06290537       0.95753321       1.80619187        1 
H       0.99602845      -0.00575010       1.88941793        1 
