29
Lattice="0.0 0.0 0.0 0.0 0.0 0.0 0.0 0.0 0.0" Properties=species:S:1:pos:R:3:Z:I:1 pbc="F F F"
C      -0.75761113       0.18929211       0.81622594        6 
C       0.69084123       0.79404008       0.77005485        6 
C      -1.00676979      -1.12906509       0.12208960        6 
C       1.74372532       0.06048057      -0.04496332        6 
O      -2.25980505      -1.55770141       0.40907411        8 
O      -0.25304535      -1.73678706      -0.59489521        8 
O       2.45674354      -0.76452915       0.75580070        8 
O       1.93607406       0.15944536      -1.22912579        8 
C       3.38776935      -1.62922139       0.07935739        6 
C      -2.66003021      -2.79766950      -0.20290367        6 
C      -1.66106553       1.37513341       0.28936353        6 
C      -1.31327846       1.59191409      -1.17086287        6 
C      -0.07964411       2.10551352      -1.21718711        6 
C       0.41598382       2.24565223       0.21550246        6 
C      -0.91564459       2.56462329       0.93385687        6 
H       2.85474520      -2.26204804      -0.63177448        1 
H      -2.01197050      -3.61232328       0.12451542        1 
H       0.52334428       2.27670541      -2.09579982        1 
H       3.84868745      -2.22898138       0.86136803        1 
H       4.14110281      -1.04433163      -0.45054485        1 
H      -3.68262816      -2.96669815       0.12739862        1 
H      -2.61481957      -2.71991663      -1.29021931        1 
H       1.25006060       2.92856245       0.37032920        1 
H      -2.71275168       1.23952939       0.53332970        1 
H      -1.33268113       3.52648208       0.63190376        1 
H      -0.85678019       2.50978563       2.02518218        1 
H      -1.91581046       1.26119291      -2.00664372        1 
H      -1.02651329       0.01799011       1.86247807        1 
H       1.06607407       0.85959957       1.79171463        1 
