29
Lattice="0.0 0.0 0.0 0.0 0.0 0.0 0.0 0.0 0.0" Properties=species:S:1:pos:R:3:Z:I:1 pbc="F F F"
C      -0.12601949       1.17074417       0.59462158        6 
C       0.72940286      -0.07687951       1.07911601        6 
C      -1.33510571       0.81138191      -0.24219144        6 
C       0.15437263      -1.41706209       0.66020573        6 
O      -2.45946747       0.88738539       0.49604356        8 
O      -1.32650852       0.50386962      -1.41084715        8 
O       0.89213877      -2.06365876      -0.25748629        8 
O      -0.85721438      -1.87631196       1.13935057        8 
C       0.36082945      -3.31692183      -0.72756168        6 
C      -3.67146185       0.45807326      -0.15105628        6 
C       0.95098587       2.06103619      -0.11537838        6 
C       1.45037024       1.32987264      -1.34946291        6 
C       2.18467707       0.29453837      -0.93495844        6 
C       2.17440311       0.30122322       0.58653259        6 
C       2.14303350       1.82636046       0.84367424        6 
H       0.22895271      -4.01260223       0.10212054        1 
H      -3.58215312      -0.58563072      -0.45518112        1 
H       2.60870449      -0.49175504      -1.54133131        1 
H       1.09538113      -3.69496674      -1.43523074        1 
H      -0.59827780      -3.15405508      -1.22098729        1 
H      -4.45379936       0.57221699       0.59582680        1 
H      -3.87978976       1.07622689      -1.02581722        1 
H       2.95734507      -0.27554237       1.07734130        1 
H       0.61992676       3.08890149      -0.26182415        1 
H       3.05276443       2.32459221       0.50654256        1 
H       1.93315101       2.09810419       1.88325357        1 
H       1.15232990       1.55839654      -2.36222979        1 
H      -0.49762072       1.68957694       1.47805074        1 
H       0.70210965      -0.09546527       2.17051855        1 
