29
Lattice="0.0 0.0 0.0 0.0 0.0 0.0 0.0 0.0 0.0" Properties=species:S:1:pos:R:3:Z:I:1 pbc="F F F"
C      -0.53153197       0.43498968       0.86195938        6 
C       1.01604597       0.50290506       0.68058196        6 
C      -1.29599632      -0.54162010      -0.00601999        6 
C       1.77846847      -0.67480340       0.11706678        6 
O      -2.57044133      -0.64331055       0.44568018        8 
O      -0.89501512      -1.12921812      -0.97810525        8 
O       1.26841887      -1.84288805       0.55352529        8 
O       2.83483233      -0.58497302      -0.46190335        8 
C       1.93709156      -3.03611995       0.11217955        6 
C      -3.44648884      -1.48693628      -0.32276782        6 
C      -0.95120257       1.91514554       0.41618922        6 
C      -0.74268417       1.96742567      -1.09111957        6 
C       0.57496163       1.93283338      -1.31592316        6 
C       1.27222818       1.90063297       0.03186758        6 
C       0.27539751       2.72636249       0.88219037        6 
H       1.87393227      -3.11890697      -0.97396436        1 
H      -3.08469751      -2.51650373      -0.32043970        1 
H       1.07551355       1.83074867      -2.26893510        1 
H       1.40436403      -3.85821169       0.58554361        1 
H       2.98470215      -3.02801669       0.41673735        1 
H      -4.41578786      -1.42158982       0.16691644        1 
H      -3.51225691      -1.13394402      -1.35331481        1 
H       2.31995820       2.19140649       0.04374774        1 
H      -1.93223104       2.20673177       0.78587222        1 
H       0.21914623       3.77028666       0.57011784        1 
H       0.46187557       2.66963835       1.95863654        1 
H      -1.53281843       1.88989397      -1.82651160        1 
H      -0.81320628       0.26836882       1.90099975        1 
H       1.43066351       0.55984281       1.69604085        1 
