29
Lattice="0.0 0.0 0.0 0.0 0.0 0.0 0.0 0.0 0.0" Properties=species:S:1:pos:R:3:Z:I:1 pbc="F F F"
C      -0.61934634       0.73550041       0.67060213        6 
C       0.85634868       0.29599739       0.99908822        6 
C      -1.61341491      -0.18750340      -0.00352459        6 
C       1.41464867      -1.08443623       0.71175527        6 
O      -2.82718024      -0.02699984       0.59327771        8 
O      -1.44431367      -0.92722641      -0.93713462        8 
O       1.20138994      -1.51411379      -0.53444953        8 
O       2.09296164      -1.68438061       1.51813710        8 
C       1.74844490      -2.79805227      -0.87775635        6 
C      -3.91238273      -0.78085021       0.02567059        6 
C      -0.40207015       2.05449515      -0.18790574        6 
C       0.25028252       1.64795965      -1.49507168        6 
C       1.50487725       1.27684759      -1.21961405        6 
C       1.70979350       1.42588398       0.27630251        6 
C       0.81057288       2.64889232       0.55914632        6 
H       2.83786937      -2.78113939      -0.81167572        1 
H      -3.70153198      -1.85054327       0.07129563        1 
H       2.21398455       0.82471133      -1.89861024        1 
H       1.42463149      -2.98163695      -1.89962159        1 
H       1.36155266      -3.56840264      -0.20903888        1 
H      -4.78289856      -0.53715279       0.63111833        1 
H      -4.07678421      -0.49425656      -1.01462830        1 
H       2.73917393       1.46025812       0.63001624        1 
H      -1.30349030       2.66236155      -0.25555330        1 
H       1.18410016       3.55794698       0.08523857        1 
H       0.63016584       2.82883717       1.62262437        1 
H      -0.26554502       1.55242073      -2.44048868        1 
H      -1.08660279       1.03193776       1.60924443        1 
H       0.99859388       0.41099142       2.07352308        1 
