29
Lattice="0.0 0.0 0.0 0.0 0.0 0.0 0.0 0.0 0.0" Properties=species:S:1:pos:R:3:Z:I:1 pbc="F F F"
C      -0.69756053       0.59073273       0.67432915        6 
C       0.82910474       0.41536040       0.98500668        6 
C      -1.60064941      -0.55412149       0.25845814        6 
C       1.67668941      -0.78524819       0.60492210        6 
O      -2.88843053      -0.11358531       0.34057343        8 
O      -1.32451086      -1.66657113      -0.10326202        8 
O       1.31891596      -1.38761981      -0.53077348        8 
O       2.68660686      -1.06096074       1.21708605        8 
C       2.13804292      -2.48471097      -0.96494129        6 
C      -3.90274922      -1.05541921      -0.04784653        6 
C      -0.74670337       1.84990195      -0.27955563        6 
C      -0.00971315       1.50003157      -1.55711570        6 
C       1.29160765       1.41509344      -1.26171771        6 
C       1.44266872       1.68551101       0.22649575        6 
C       0.31644078       2.71868649       0.42927845        6 
H       3.15351074      -2.14629984      -1.17946552        1 
H      -3.84850700      -1.95474657       0.56764875        1 
H       2.08731476       1.08075790      -1.91321948        1 
H       1.65758519      -2.86073862      -1.86544511        1 
H       2.17214603      -3.25994118      -0.19828129        1 
H      -4.84975225      -0.54259953       0.10758523        1 
H      -3.78682763      -1.33387207      -1.09689612        1 
H       2.44061538       1.93595080       0.58048140        1 
H      -1.75008766       2.25701876      -0.38324783        1 
H       0.51259469       3.65211969      -0.10061909        1 
H       0.08678581       2.92672766       1.47820319        1 
H      -0.48444657       1.25401105      -2.49781067        1 
H      -1.15326399       0.92897811       1.60994245        1 
H       0.99345784       0.54366240       2.05445750        1 
