29
Lattice="0.0 0.0 0.0 0.0 0.0 0.0 0.0 0.0 0.0" Properties=species:S:1:pos:R:3:Z:I:1 pbc="F F F"
C      -0.60130922       0.69773795      -0.97190151        6 
C      -0.74180269      -0.86177935      -0.79038076        6 
C       0.71397890       1.38125715      -0.64991150        6 
C       0.37274076      -1.71010662      -0.21147080        6 
O       0.92912618       1.54608868       0.66979544        8 
O       1.46366116       1.80609715      -1.49724560        8 
O       1.56879102      -1.09877027      -0.19485144        8 
O       0.21464344      -2.86445342       0.11025990        8 
C       2.68433875      -1.88679899       0.25980776        6 
C       2.17916197       2.15574568       1.02708041        6 
C      -1.85708846       1.22512738      -0.16868544        6 
C      -1.68711885       0.85328893       1.29810012        6 
C      -1.83092218      -0.47188199       1.40155127        6 
C      -2.09104275      -1.01070605       0.00503677        6 
C      -2.89372462       0.16048664      -0.60150284        6 
H       2.52764507      -2.20570829       1.29114109        1 
H       2.25604888       3.15776558       0.60223845        1 
H      -1.67465626      -1.08620754       2.27811000        1 
H       3.54916450      -1.23152660       0.18501349        1 
H       2.81265247      -2.76556009      -0.37363936        1 
H       2.18259679       2.19748575       2.11430662        1 
H       3.01079151       1.54986999       0.66292062        1 
H      -2.51323447      -2.01058426      -0.06246412        1 
H      -2.08890302       2.26834295      -0.38020973        1 
H      -3.86162053       0.29663088      -0.11696059        1 
H      -3.02829334       0.09171913      -1.68520051        1 
H      -1.39281296       1.54306784       2.07533163        1 
H      -0.75306474       0.92193590      -2.02800182        1 
H      -0.88848095      -1.29491824      -1.78637129        1 
