29
Lattice="0.0 0.0 0.0 0.0 0.0 0.0 0.0 0.0 0.0" Properties=species:S:1:pos:R:3:Z:I:1 pbc="F F F"
C      -0.85081053       0.26648050      -1.00410981        6 
C       0.01575898      -1.00917334      -0.66782675        6 
C      -0.40255170       1.67484486      -0.67192712        6 
C       1.32918766      -0.87943518       0.07938655        6 
O       0.06670886       1.81614379       0.57277351        8 
O      -0.52832744       2.59724677      -1.44736550        8 
O       2.34843776      -1.29375625      -0.71868427        8 
O       1.50149490      -0.49018185       1.20549648        8 
C       3.66262526      -1.24327376      -0.13572754        6 
C       0.46712300       3.14070300       0.96351229        6 
C      -2.25224061      -0.09177448      -0.35057801        6 
C      -2.06842190      -0.13955769       1.15480413        6 
C      -1.33335413      -1.22024106       1.43709252        6 
C      -1.01827420      -1.91396965       0.12299745        6 
C      -2.30306326      -1.60075015      -0.67511770        6 
H       3.91691439      -0.21943992       0.14356557        1 
H      -0.38623629       3.82068150       0.93986126        1 
H      -0.91497768      -1.49415117       2.39458989        1 
H       4.33687712      -1.60862076      -0.90732031        1 
H       3.71293411      -1.87758421       0.75085846        1 
H       0.85079189       3.03531941       1.97554197        1 
H       1.24183499       3.51828442       0.29434866        1 
H      -0.70550468      -2.95603056       0.18437532        1 
H      -3.05831579       0.53414332      -0.73110236        1 
H      -3.18438751      -2.08778134      -0.25485434        1 
H      -2.22778819      -1.82665182      -1.74299384        1 
H      -2.36825218       0.64173141       1.83914605        1 
H      -0.99044402       0.29160978      -2.08519601        1 
H       0.24948045      -1.50022174      -1.61197106        1 
