29
Lattice="0.0 0.0 0.0 0.0 0.0 0.0 0.0 0.0 0.0" Properties=species:S:1:pos:R:3:Z:I:1 pbc="F F F"
C      -0.82622970       0.81310955       0.83667657        6 
C       0.71432346       0.48861237       1.01761934        6 
C      -1.72970437      -0.35554610       0.50304178        6 
C       1.14432639      -0.90851327       0.60055184        6 
O      -1.78987076      -0.61154786      -0.82166248        8 
O      -2.30441596      -1.01528978       1.33194118        8 
O       2.19535905      -0.90468760      -0.24583829        8 
O       0.65959498      -1.92387290       1.03689731        8 
C       2.67838564      -2.19793384      -0.65446672        6 
C      -2.55349804      -1.77255083      -1.19881798        6 
C      -0.80672186       2.06072373      -0.10970821        6 
C      -0.18603671       1.67865893      -1.44322563        6 
C       1.11796372       1.47164937      -1.23980924        6 
C       1.38872866       1.68314838       0.24297017        6 
C       0.38092814       2.81886873       0.53549823        6 
H       2.99988161      -2.77828909       0.21143850        1 
H      -3.59376938      -1.66395286      -0.88823557        1 
H       1.84406299       1.10458649      -1.95005615        1 
H       3.51760936      -1.99699515      -1.31680546        1 
H       1.89543545      -2.74514385      -1.18169881        1 
H      -2.48125008      -1.82748523      -2.28318051        1 
H      -2.13130119      -2.66539227      -0.73565685        1 
H       2.42763840       1.84575493       0.52381863        1 
H      -1.76666565       2.57436039      -0.15221652        1 
H       0.62770199       3.73978302       0.00549977        1 
H       0.24175077       3.02890599       1.60039049        1 
H      -0.74251383       1.51432154      -2.35475603        1 
H      -1.19583048       1.14301688       1.80910836        1 
H       0.95058252       0.54416041       2.08339712        1 
