29
Lattice="0.0 0.0 0.0 0.0 0.0 0.0 0.0 0.0 0.0" Properties=species:S:1:pos:R:3:Z:I:1 pbc="F F F"
C       0.96297064      -0.62841025      -0.80473945        6 
C       0.46710229       0.86271498      -0.94392462        6 
C       0.04898315      -1.77902707      -0.44451683        6 
C      -0.98821577       1.23621211      -0.71801237        6 
O      -1.00170610      -1.44315460       0.32050142        8 
O       0.26874829      -2.91269139      -0.80571919        8 
O      -1.36192894       1.27945459       0.57090524        8 
O      -1.71153372       1.59762440      -1.61972170        8 
C      -2.73065689       1.63747063       0.81834805        6 
C      -1.88622737      -2.51698818       0.69075916        6 
C       2.19635262      -0.50171237       0.17599089        6 
C       1.67437666      -0.07756485       1.53575346        6 
C       1.25857713       1.18803531       1.42894775        6 
C       1.48997840       1.63085300      -0.00765365        6 
C       2.77883629       0.83802095      -0.32922058        6 
H      -2.94826929       2.63228505       0.42660514        1 
H      -1.35365245      -3.26457602       1.28034757        1 
H       0.73710746       1.76894312       2.17505062        1 
H      -2.84412255       1.61605540       1.90022978        1 
H      -3.40161452       0.91613382       0.34823877        1 
H      -2.67221499      -2.05150580       1.28156079        1 
H      -2.30175323      -2.99182534      -0.19915135        1 
H       1.50325069       2.70513845      -0.18787152        1 
H       2.83894489      -1.37994516       0.14538655        1 
H       3.63146954       1.16930795       0.26482368        1 
H       3.04458021       0.83254940      -1.39042286        1 
H       1.55793085      -0.73626998       2.38605705        1 
H       1.36521731      -0.93019522      -1.77345585        1 
H       0.64745693       1.16730843      -1.97451125        1 
