29
Lattice="0.0 0.0 0.0 0.0 0.0 0.0 0.0 0.0 0.0" Properties=species:S:1:pos:R:3:Z:I:1 pbc="F F F"
C      -0.72104964       0.73691380      -0.82764553        6 
C      -0.30910100      -0.78221031      -0.74932236        6 
C       0.13494978       1.71183449      -0.03946856        6 
C       0.92399413      -1.13931563       0.04559604        6 
O       1.22284799       2.05296472      -0.77215187        8 
O      -0.05385872       2.10296450       1.08223425        8 
O       1.58163432      -2.15926459      -0.55868010        8 
O       1.27830780      -0.65690758       1.09205371        8 
C       2.73741718      -2.66241200       0.13561657        6 
C       2.20736961       2.85251630      -0.09097118        6 
C      -2.22226902       0.69567306      -0.34821145        6 
C      -2.22750042       0.30611858       1.12337887        6 
C      -1.87492072      -0.98057913       1.20188249        6 
C      -1.62725281      -1.47330431      -0.21167389        6 
C      -2.67048696      -0.63786396      -0.98839319        6 
H       3.47904903      -1.87247726       0.26339011        1 
H       2.54996793       2.33596176       0.80668863        1 
H      -1.66469541      -1.54602365       2.09937370        1 
H       3.12935609      -3.45880616      -0.49314481        1 
H       2.45570159      -3.04997935       1.11619654        1 
H       3.02175047       2.97792002      -0.80139219        1 
H       1.78891609       3.82125390       0.18715595        1 
H      -1.62646016      -2.55148992      -0.36736184        1 
H      -2.78122852       1.59257806      -0.61233205        1 
H      -3.69535521      -0.90569225      -0.72702818        1 
H      -2.54267005      -0.67524073      -2.07494475        1 
H      -2.36443886       0.99791538       1.94019030        1 
H      -0.67280941       1.04284754      -1.87387721        1 
H      -0.13845232      -1.14699862      -1.76286011        1 
