29
Lattice="0.0 0.0 0.0 0.0 0.0 0.0 0.0 0.0 0.0" Properties=species:S:1:pos:R:3:Z:I:1 pbc="F F F"
C      -0.67515838       0.60786144      -0.98258682        6 
C      -0.60584139      -0.94203682      -0.72150510        6 
C       0.48907283       1.47634407      -0.55392402        6 
C       0.63409657      -1.55058789      -0.10397515        6 
O       0.79510426       1.34685269       0.75261813        8 
O       1.06002577       2.24262313      -1.29335605        8 
O       1.75839159      -0.97333417      -0.57489656        8 
O       0.63634904      -2.52899913       0.60316979        8 
C       3.00323874      -1.53872811      -0.12797249        6 
C       1.92731219       2.10194693       1.21267169        6 
C      -2.05313480       0.97788334      -0.28901814        6 
C      -1.91782360       0.73508158       1.20693256        6 
C      -1.84912616      -0.58609084       1.40009681        6 
C      -1.93965129      -1.25146969       0.03661188        6 
C      -2.88161470      -0.26507913      -0.69171003        6 
H       3.09261934      -1.44884028       0.95597388        1 
H       1.76540213       3.17075694       1.06563107        1 
H      -1.64129508      -1.10794297       2.32382864        1 
H       3.77785702      -0.96067661      -0.62696263        1 
H       3.06765304      -2.59139039      -0.40703066        1 
H       2.02009672       1.86919419       2.27144916        1 
H       2.82619920       1.79953963       0.67220253        1 
H      -2.20261427      -2.30694777       0.02777951        1 
H      -2.42871829       1.95449079      -0.59234491        1 
H      -3.88610205      -0.25321013      -0.26639968        1 
H      -2.94014360      -0.42371041      -1.77315312        1 
H      -1.77926024       1.51199030       1.94544827        1 
H      -0.76966039       0.78874648      -2.05250599        1 
H      -0.65206613      -1.43000383      -1.70337331        1 
