29
Lattice="0.0 0.0 0.0 0.0 0.0 0.0 0.0 0.0 0.0" Properties=species:S:1:pos:R:3:Z:I:1 pbc="F F F"
C       0.37632251       1.03699103       0.63154499        6 
C       0.69830308      -0.45707123       1.01052205        6 
C      -0.95340254       1.40693420       0.01651423        6 
C      -0.03853331      -1.62018241       0.35454969        6 
O      -1.96799009       1.11153623       0.85569602        8 
O      -1.09735423       2.04472751      -0.99900137        8 
O      -1.24339777      -1.31344860      -0.15266297        8 
O       0.44987086      -2.72212555       0.25605020        8 
C      -1.92402485      -2.37240986      -0.85274781        6 
C      -3.28812923       1.41784191       0.38180039        6 
C       1.64157121       1.50672806      -0.14450824        6 
C       1.78382396       0.63865795      -1.38267479        6 
C       2.15256535      -0.58250734      -0.98036934        6 
C       2.21624234      -0.56163422       0.54397824        6 
C       2.71989805       0.87742448       0.76987299        6 
H      -1.34085060      -2.68737354      -1.71922709        1 
H      -3.48535394       0.89296149      -0.55487318        1 
H       2.25721351      -1.47379678      -1.58343930        1 
H      -2.87464268      -1.94651982      -1.16594939        1 
H      -2.08139077      -3.22711078      -0.19404661        1 
H      -3.96511452       1.07347400       1.16075132        1 
H      -3.40253787       2.49102568       0.21994563        1 
H       2.75415133      -1.37882070       1.01713437        1 
H       1.67081105       2.58270441      -0.30358745        1 
H       3.73190675       1.02301507       0.38947993        1 
H       2.66270527       1.21214192       1.80998609        1 
H       1.52830228       0.95527485      -2.38432393        1 
H       0.35907359       1.58150255       1.58284749        1 
H       0.61243094      -0.60076786       2.09025209        1 
