29
Lattice="0.0 0.0 0.0 0.0 0.0 0.0 0.0 0.0 0.0" Properties=species:S:1:pos:R:3:Z:I:1 pbc="F F F"
C      -0.60621720       0.67753887       0.75159531        6 
C       0.92353386       0.42764452       0.95989387        6 
C      -1.51681230      -0.49324389       0.45607057        6 
C       1.58588850      -0.86422161       0.51899732        6 
O      -2.74207486      -0.04063615       0.09410010        8 
O      -1.25086112      -1.66463689       0.54746726        8 
O       1.15907256      -1.31241171      -0.67064486        8 
O       2.50580272      -1.36260328       1.12733419        8 
C       1.73772177      -2.54145320      -1.13703905        6 
C      -3.73924472      -1.04776240      -0.15576873        6 
C      -0.66945358       1.93975803      -0.18476872        6 
C      -0.04652963       1.57551012      -1.51867660        6 
C       1.26695426       1.42142520      -1.32306837        6 
C       1.54306569       1.65926735       0.15333530        6 
C       0.48806709       2.74797759       0.44870847        6 
H       2.82192236      -2.45205276      -1.22199278        1 
H      -3.90585547      -1.65189382       0.73762457        1 
H       1.99491028       1.06208682      -2.03722928        1 
H       1.28804675      -2.71971046      -2.11160446        1 
H       1.49307518      -3.35394484      -0.45112637        1 
H      -4.64184173      -0.50168566      -0.42175782        1 
H      -3.42920896      -1.69869275      -0.97480436        1 
H       2.57642742       1.86101985       0.42961585        1 
H      -1.65452126       2.39929173      -0.21332534        1 
H       0.69157385       3.67677624      -0.08638130        1 
H       0.35093917       2.95467841       1.51424299        1 
H      -0.60263861       1.37223876      -2.42428764        1 
H      -0.99083192       1.02067385       1.72153308        1 
H       1.18242819       0.53408132       2.01219288        1 
