29
Lattice="0.0 0.0 0.0 0.0 0.0 0.0 0.0 0.0 0.0" Properties=species:S:1:pos:R:3:Z:I:1 pbc="F F F"
C      -0.90258344       0.36242335      -0.91991938        6 
C      -0.05565306      -0.95053566      -0.70911590        6 
C      -0.44751080       1.75184081      -0.52212655        6 
C       1.27166262      -0.94399285       0.02912298        6 
O       0.54530990       1.78273895       0.37132577        8 
O      -0.96638100       2.74513389      -0.98099112        8 
O       2.26325120      -1.32097233      -0.82095798        8 
O       1.47344930      -0.67780501       1.18518207        8 
C       3.58392356      -1.37978107      -0.25457094        6 
C       0.98372533       3.08281939       0.80466858        6 
C      -2.29458625      -0.00211967      -0.25898355        6 
C      -2.05821818      -0.14809047       1.23192642        6 
C      -1.34428248      -1.26360548       1.41815693        6 
C      -1.09661177      -1.88189028       0.04958525        6 
C      -2.39808582      -1.48379655      -0.67806490        6 
H       3.88174740      -0.39874132       0.11920584        1 
H       0.15751714       3.63150600       1.25886219        1 
H      -0.90183453      -1.61154558       2.33984882        1 
H       4.23526902      -1.69464970      -1.06708762        1 
H       3.61786747      -2.09900661       0.56562286        1 
H       1.76592282       2.88920463       1.53490386        1 
H       1.37218383       3.65489475      -0.03953423        1 
H      -0.81204582      -2.93363137       0.03550176        1 
H      -3.08789479       0.67393708      -0.57200129        1 
H      -3.27768156      -1.97516120      -0.25906697        1 
H      -2.36608948      -1.63886011      -1.76063919        1 
H      -2.31611305       0.59531760       1.97439676        1 
H      -1.08121064       0.46020323      -1.99344095        1 
H       0.14018786      -1.37760221      -1.69180975        1 
