29
Lattice="0.0 0.0 0.0 0.0 0.0 0.0 0.0 0.0 0.0" Properties=species:S:1:pos:R:3:Z:I:1 pbc="F F F"
C      -0.61918504       0.54610346      -1.01323901        6 
C      -0.53551415      -1.01524641      -0.72323964        6 
C       0.59421023       1.38493966      -0.66117863        6 
C       0.62410239      -1.54794282       0.10010796        6 
O       0.49114255       1.97936036       0.54665150        8 
O       1.56651146       1.49327097      -1.36670510        8 
O       1.80145815      -1.26766829      -0.48499305        8 
O       0.52307120      -2.20277281       1.11022543        8 
C       2.98192786      -1.75009885       0.17990224        6 
C       1.63003915       2.74992618       0.96992989        6 
C      -2.00705909       0.92534685      -0.38944094        6 
C      -1.96069469       0.68162036       1.11148209        6 
C      -1.92282489      -0.63981875       1.30691414        6 
C      -1.93017088      -1.30372450      -0.06404909        6 
C      -2.82157866      -0.31066194      -0.84340706        6 
H       3.04349389      -1.34307738       1.19052544        1 
H       1.81457168       3.57365083       0.27858087        1 
H      -1.78236680      -1.16637801       2.23924065        1 
H       3.81464521      -1.40114701      -0.42614380        1 
H       2.97080250      -2.84001386       0.23330572        1 
H       1.37340649       3.12753954       1.95731418        1 
H       2.51835735       2.11830771       1.01810878        1 
H      -2.20430227      -2.35695950      -0.08822636        1 
H      -2.36389797       1.90393558      -0.70977837        1 
H      -3.84866571      -0.29563939      -0.47629610        1 
H      -2.81903742      -0.46636253      -1.92713582        1 
H      -1.86738101       1.45948651       1.85500409        1 
H      -0.69277832       0.65467987      -2.09739830        1 
H      -0.45875379      -1.52370704      -1.68882556        1 
