29
Lattice="0.0 0.0 0.0 0.0 0.0 0.0 0.0 0.0 0.0" Properties=species:S:1:pos:R:3:Z:I:1 pbc="F F F"
C      -0.83721766       0.65853732      -0.84122023        6 
C      -0.25958170      -0.80184183      -0.77607199        6 
C      -0.04750724       1.73187002      -0.11974348        6 
C       0.99521347      -1.00432270       0.03953589        6 
O       1.16801382       1.87655125      -0.69254107        8 
O      -0.43612507       2.40238905       0.80247845        8 
O       1.79394289      -1.92534661      -0.54792290        8 
O       1.25763653      -0.47997897       1.09422975        8 
C       2.99643456      -2.26461920       0.16614282        6 
C       2.07152485       2.77727133      -0.02683556        6 
C      -2.30747007       0.48122813      -0.32168833        6 
C      -2.22832604       0.10474381       1.14983429        6 
C      -1.74099814      -1.13810208       1.22085961        6 
C      -1.49145407      -1.61766849      -0.19911804        6 
C      -2.63880473      -0.89540516      -0.94289495        6 
H       3.62055035      -1.38039722       0.30400298        1 
H       2.23203390       2.44762215       1.00046843        1 
H      -1.44567027      -1.67254893       2.11336316        1 
H       3.50480308      -2.99912300      -0.45467346        1 
H       2.75516347      -2.68812606       1.14246783        1 
H       2.99805605       2.73153281      -0.59525648        1 
H       1.67133766       3.79234440      -0.02656162        1 
H      -1.38998713      -2.69219120      -0.34702208        1 
H      -2.95675557       1.31833244      -0.57192262        1 
H      -3.62202872      -1.26474808      -0.64742309        1 
H      -2.54324189      -0.92708983      -2.03298363        1 
H      -2.40608148       0.78838039       1.96634225        1 
H      -0.85610433       0.95766257      -1.89321784        1 
H      -0.05375243      -1.16126755      -1.78405842        1 
