29
Lattice="0.0 0.0 0.0 0.0 0.0 0.0 0.0 0.0 0.0" Properties=species:S:1:pos:R:3:Z:I:1 pbc="F F F"
C      -0.66918602       0.26926803      -1.07262298        6 
C      -0.21168622      -1.17537772      -0.58747783        6 
C       0.25108150       1.40380262      -0.65623307        6 
C       1.04722496      -1.20252329       0.25465360        6 
O      -0.22345737       2.14514298       0.36133525        8 
O       1.30655361       1.63231380      -1.19969244        8 
O       2.13191099      -1.28077652      -0.53972600        8 
O       1.10503349      -1.18462463       1.46124451        8 
C       3.41025064      -1.21263761       0.11601046        6 
C       0.63429249       3.20216792       0.82871725        6 
C      -2.16744641       0.31223776      -0.59761777        6 
C      -2.19757919       0.30917594       0.92444348        6 
C      -1.79683275      -0.89704267       1.33537587        6 
C      -1.50637169      -1.72896804       0.09605658        6 
C      -2.56853076      -1.15713570      -0.87483817        6 
H       3.51528924      -0.25903158       0.63548479        1 
H       0.85106313       3.90420655       0.02261808        1 
H      -1.59115514      -1.21222276       2.34746923        1 
H       4.14737197      -1.29418445      -0.67927689        1 
H       3.51853102      -2.02969910       0.83091805        1 
H       0.08112093       3.68982253       1.62835515        1 
H       1.56945506       2.78779387       1.20810540        1 
H      -1.48353448      -2.80964176       0.23350898        1 
H      -2.74791150       1.09069780      -1.09181106        1 
H      -3.58832615      -1.37904755      -0.55807820        1 
H      -2.42910967      -1.46644661      -1.91587573        1 
H      -2.39377495       1.17789724       1.53469592        1 
H      -0.62969995       0.27746958      -2.16371395        1 
H       0.00940155      -1.76351741      -1.47978805        1 
