29
Lattice="0.0 0.0 0.0 0.0 0.0 0.0 0.0 0.0 0.0" Properties=species:S:1:pos:R:3:Z:I:1 pbc="F F F"
C      -0.77886032       0.42553343      -0.99918475        6 
C      -0.35160532      -1.05917801      -0.68380779        6 
C       0.02107028       1.61156898      -0.49986454        6 
C       0.97720446      -1.29518607       0.00423646        6 
O       0.95555782       1.29571145       0.40966174        8 
O      -0.21017503       2.74550204      -0.85024179        8 
O       1.98671500      -1.16478391      -0.88712081        8 
O       1.14565494      -1.58391849       1.16201713        8 
C       3.31571266      -1.26840141      -0.35120284        6 
C       1.67396038       2.38994209       1.00619974        6 
C      -2.24141692       0.48447996      -0.38876079        6 
C      -2.07996282       0.40850959       1.12110980        6 
C      -1.68075466      -0.83231713       1.42002471        6 
C      -1.58506436      -1.61075243       0.11569212        6 
C      -2.72740627      -0.94918340      -0.69008407        6 
H       3.47579796      -0.49874787       0.40584899        1 
H       0.98384113       3.05368605       1.52908288        1 
H      -1.35846441      -1.20781724       2.37979464        1 
H       3.98393152      -1.11861618      -1.19661070        1 
H       3.47665426      -2.25063142       0.09578800        1 
H       2.36633974       1.92969630       1.70739782        1 
H       2.21005614       2.95663679       0.24363280        1 
H      -1.58993150      -2.69637260       0.20177295        1 
H      -2.82040327       1.31741867      -0.78191246        1 
H      -3.71252730      -1.15059569      -0.26702185        1 
H      -2.72170827      -1.20300569      -1.75481262        1 
H      -2.15505462       1.25435330       1.79177262        1 
H      -0.84928823       0.56148778      -2.08011165        1 
H      -0.28868383      -1.58103819      -1.64188756        1 
