29
Lattice="0.0 0.0 0.0 0.0 0.0 0.0 0.0 0.0 0.0" Properties=species:S:1:pos:R:3:Z:I:1 pbc="F F F"
C      -0.64258608       0.57654808       0.91016470        6 
C       0.93021199       0.64351140       0.89216349        6 
C      -1.28694218      -0.71834590       0.45986543        6 
C       1.70037315      -0.61432551       0.53528061        6 
O      -2.54965551      -0.49927678       0.03059596        8 
O      -0.79311701      -1.81703103       0.51829169        8 
O       1.61353092      -0.93654952      -0.76861067        8 
O       2.36744614      -1.23062617       1.33129094        8 
C       2.20026714      -2.19387395      -1.14606561        6 
C      -3.29471414      -1.66538764      -0.36704195        6 
C      -1.06310549       1.85488661       0.09375658        6 
C      -0.67782657       1.58733998      -1.35226848        6 
C       0.65688859       1.60323441      -1.41967814        6 
C       1.18830140       1.89951242      -0.02661492        6 
C       0.06688971       2.82565077       0.50249099        6 
H       3.26874031      -2.20419551      -0.92639632        1 
H      -3.39273446      -2.36036011       0.46838868        1 
H       1.27255112       1.34467594      -2.26877745        1 
H       2.02671184      -2.28438547      -2.21659060        1 
H       1.70841876      -3.00530022      -0.60764915        1 
H      -4.27022769      -1.29435058      -0.67373765        1 
H      -2.79700279      -2.16993697      -1.19662857        1 
H       2.21316143       2.26400559       0.03206445        1 
H      -2.08963745       2.16489456       0.27475665        1 
H       0.01503905       3.77298043      -0.03631734        1 
H       0.12315436       3.01261298       1.57887568        1 
H      -1.37337648       1.31057457      -2.13293667        1 
H      -0.97486266       0.69412622       1.94808282        1 
H       1.27204303       0.88176415       1.89917825        1 
