29
Lattice="0.0 0.0 0.0 0.0 0.0 0.0 0.0 0.0 0.0" Properties=species:S:1:pos:R:3:Z:I:1 pbc="F F F"
C      -0.06818810       0.90719973       0.94841414        6 
C       1.16841693      -0.06368159       0.87693685        6 
C      -1.42157347       0.27635848       0.69975873        6 
C       0.96563319      -1.48913533       0.41259341        6 
O      -2.15463299       0.96175416      -0.20037941        8 
O      -1.82592659      -0.70303560       1.27881410        8 
O       0.14425076      -1.58758808      -0.65010112        8 
O       1.53385118      -2.43566803       0.90350773        8 
C      -0.13822939      -2.91960758      -1.11264521        6 
C      -3.46461372       0.43334941      -0.47959543        6 
C       0.36930403       2.11901710       0.05411940        6 
C       0.48026874       1.62759329      -1.37902279        6 
C       1.54011516       0.81743921      -1.44709255        6 
C       2.15716558       0.74806931      -0.06072894        6 
C       1.86728833       2.18315224       0.43789090        6 
H       0.78274861      -3.43436070      -1.38958450        1 
H      -4.06825173       0.40525298       0.42855203        1 
H       1.84529173       0.21020504      -2.28832142        1 
H      -0.78375823      -2.79436374      -1.97951052        1 
H      -0.64966501      -3.48500136      -0.33225659        1 
H      -3.90075430       1.11087681      -1.21048873        1 
H      -3.38552590      -0.57475425      -0.88924182        1 
H       3.18263309       0.38689293       0.00089787        1 
H      -0.23162522       3.01272174       0.21237973        1 
H       2.41367899       2.93878973      -0.12830902        1 
H       2.04345655       2.31965308       1.50884356        1 
H      -0.25270577       1.81668976      -2.15022779        1 
H      -0.13755507       1.25476737       1.98498857        1 
H       1.62454636      -0.15473834       1.86171345        1 
