29
Lattice="0.0 0.0 0.0 0.0 0.0 0.0 0.0 0.0 0.0" Properties=species:S:1:pos:R:3:Z:I:1 pbc="F F F"
C      -0.68141888       0.18030330      -1.06589461        6 
C      -0.02938849      -1.18906256      -0.58596034        6 
C       0.05786925       1.43111054      -0.62075891        6 
C       1.22470525      -1.04694808       0.25048791        6 
O      -0.61043579       2.15949058       0.29059057        8 
O       1.12351488       1.76874858      -1.08167972        8 
O       2.31630263      -1.08294911      -0.53674420        8 
O       1.27195809      -0.93972553       1.45319639        8 
C       3.57824482      -0.84923771       0.11349372        6 
C       0.05107083       3.34934837       0.75962963        6 
C      -2.17478248       0.00501932      -0.60089729        6 
C      -2.20514973       0.00623324       0.92151647        6 
C      -1.63641233      -1.12782502       1.33907701        6 
C      -1.22977312      -1.91684104       0.10379799        6 
C      -2.36058575      -1.50638289      -0.87093379        6 
H       3.59133870       0.14771660       0.55612652        1 
H       0.25632095       4.02534038      -0.07152034        1 
H      -1.39137748      -1.40618618       2.35330939        1 
H       4.32636726      -0.92573831      -0.67210592        1 
H       3.75380845      -1.59540946       0.88983236        1 
H      -0.64032699       3.80417363       1.46545417        1 
H       0.98768087       3.08850579       1.25397886        1 
H      -1.05305624      -2.98262134       0.24642837        1 
H      -2.85942887       0.69032564      -1.09914785        1 
H      -3.33909210      -1.87107279      -0.55506000        1 
H      -2.17611285      -1.79912437      -1.90974748        1 
H      -2.52408710       0.84108544       1.52695637        1 
H      -0.63092803       0.20934737      -2.15634239        1 
H       0.25955909      -1.74482590      -1.47898809        1 
