29
Lattice="0.0 0.0 0.0 0.0 0.0 0.0 0.0 0.0 0.0" Properties=species:S:1:pos:R:3:Z:I:1 pbc="F F F"
C      -0.96459592      -0.31698680      -0.96121484        6 
C       0.52317547      -0.75401525      -0.76339168        6 
C      -1.49991770       1.01394924      -0.46852024        6 
C       1.58313146       0.30138501      -0.53943318        6 
O      -0.83257723       1.53073944       0.57202092        8 
O      -2.53336568       1.48132079      -0.89299507        8 
O       2.69044720      -0.25142617       0.01099267        8 
O       1.50370136       1.46757120      -0.83072541        8 
C       3.80068072       0.64069696       0.21906677        6 
C      -1.34561572       2.76248144       1.10477182        6 
C      -1.72223882      -1.47066796      -0.15005902        6 
C      -1.41949313      -1.23720490       1.32372027        6 
C      -0.13072341      -1.53198666       1.52404060        6 
C       0.44540682      -1.99123730       0.19568730        6 
C      -0.79863205      -2.67680858      -0.42342640        6 
H       4.13029154       1.06921839      -0.72863996        1 
H      -2.37317746       2.63418564       1.44908657        1 
H       0.44560301      -1.37623076       2.42610713        1 
H       4.58605805       0.02839865       0.65707271        1 
H       3.51861814       1.44701990       0.89777212        1 
H      -0.68815533       3.01370526       1.93404576        1 
H      -1.31592709       3.54341086       0.34360364        1 
H       1.37106385      -2.56006472       0.23445964        1 
H      -2.77140558      -1.55247057      -0.42706427        1 
H      -1.10644571      -3.56652130       0.12770816        1 
H      -0.68629651      -2.91829653      -1.48463286        1 
H      -2.10544759      -0.78700466       2.02874919        1 
H      -1.24946267      -0.37830567      -2.01073114        1 
H       0.83481904      -1.16648520      -1.73392340        1 
