29
Lattice="0.0 0.0 0.0 0.0 0.0 0.0 0.0 0.0 0.0" Properties=species:S:1:pos:R:3:Z:I:1 pbc="F F F"
C      -0.35298877       0.86373481       0.79790382        6 
C       1.03081748       0.15758389       0.98050817        6 
C      -1.59208989       0.01131560       0.64467549        6 
C       1.30478878      -1.21878135       0.39923761        6 
O      -2.48658899       0.58773976      -0.19069033        8 
O      -1.79715787      -1.02673280       1.22152452        8 
O       0.32597946      -1.69881687      -0.37972881        8 
O       2.37919063      -1.76239128       0.52456660        8 
C       0.58620168      -2.95079449      -1.03624352        6 
C      -3.73423149      -0.11174512      -0.35302450        6 
C      -0.06287735       2.03067997      -0.20164993        6 
C       0.43562488       1.43706327      -1.50742803        6 
C       1.66081705       0.94739849      -1.28889419        6 
C       1.98430087       1.16609440       0.18287967        6 
C       1.27419923       2.51644085       0.40958463        6 
H       1.43030194      -2.85337197      -1.72124797        1 
H      -4.25654341      -0.18948776       0.60195661        1 
H       2.26705512       0.36704544      -1.97211171        1 
H      -0.32591853      -3.18617985      -1.58017404        1 
H       0.80571083      -3.72674239      -0.30212024        1 
H      -4.31110734       0.48348154      -1.05761769        1 
H      -3.56030576      -1.11397857      -0.74723414        1 
H       3.02781790       1.07106476       0.47254454        1 
H      -0.87638933       2.74881321      -0.27561606        1 
H       1.73235324       3.32182862      -0.16651308        1 
H       1.19736845       2.81068998       1.46036801        1 
H      -0.15775637       1.34764771      -2.40747685        1 
H      -0.55356513       1.35089788       1.76260533        1 
H       1.32351846       0.12020650       2.02950081        1 
