29
Lattice="0.0 0.0 0.0 0.0 0.0 0.0 0.0 0.0 0.0" Properties=species:S:1:pos:R:3:Z:I:1 pbc="F F F"
C      -0.66598236       0.13811815       0.92682752        6 
C       0.66384418       0.94622490       0.70289319        6 
C      -0.80519079      -1.17930919       0.18825584        6 
C       1.77993588       0.26233961      -0.06154234        6 
O      -2.09290530      -1.59212766       0.21981300        8 
O       0.07594751      -1.82156354      -0.32610263        8 
O       2.45039766      -0.58448060       0.74559116        8 
O       2.08764883       0.48437229      -1.20664615        8 
C       3.42342136      -1.42381498       0.09954275        6 
C      -2.37189759      -2.85054782      -0.42124280        6 
C      -1.76857872       1.18082908       0.48006954        6 
C      -1.63242880       1.28863268      -1.03180854        6 
C      -0.48137070       1.92034386      -1.28673790        6 
C       0.15477553       2.27352866       0.04940562        6 
C      -1.11048795       2.50736645       0.90941021        6 
H       2.93096708      -2.04110568      -0.65308496        1 
H      -1.81046640      -3.65587147       0.05509766        1 
H      -0.00696370       2.06378313      -2.24614968        1 
H       3.84253551      -2.04390666       0.88919325        1 
H       4.20189625      -0.82149251      -0.37094688        1 
H      -3.44168086      -3.00579971      -0.29903778        1 
H      -2.10811546      -2.80580930      -1.47895464        1 
H       0.90878042       3.05885147       0.02875731        1 
H      -2.75864641       0.95283131       0.86728196        1 
H      -1.68401058       3.37736061       0.58578518        1 
H      -0.90754376       2.57523032       1.98259886        1 
H      -2.29300128       0.81204350      -1.74402398        1 
H      -0.78349524      -0.09821979       1.98854191        1 
H       1.07485396       1.17357798       1.68934638        1 
