29
Lattice="0.0 0.0 0.0 0.0 0.0 0.0 0.0 0.0 0.0" Properties=species:S:1:pos:R:3:Z:I:1 pbc="F F F"
C      -0.60959321       0.13792314       0.93692878        6 
C       0.71496690       0.92168784       0.64255398        6 
C      -0.85616223      -1.12078570       0.11891341        6 
C       1.86659289       0.20350188      -0.02630208        6 
O      -2.16586625      -1.46135766       0.18794026        8 
O      -0.04032252      -1.79562537      -0.45621100        8 
O       2.27462462      -0.83686988       0.72583543        8 
O       2.45876652       0.60219835      -1.00014797        8 
C       3.30826425      -1.66015350       0.16091460        6 
C      -2.54175056      -2.66778958      -0.50059678        6 
C      -1.70060729       1.23544375       0.56166426        6 
C      -1.66587563       1.30277840      -0.96183412        6 
C      -0.50563323       1.86991321      -1.31189550        6 
C       0.23043653       2.23653813      -0.03420141        6 
C      -0.96494157       2.54849975       0.89961565        6 
H       2.94440043      -2.12970353      -0.75444455        1 
H      -2.00375417      -3.52518791      -0.09306707        1 
H      -0.09460177       1.97396791      -2.30626536        1 
H       3.52279390      -2.41530830       0.91418183        1 
H       4.19911848      -1.06936597      -0.05710648        1 
H      -3.61184146      -2.77382380      -0.33517672        1 
H      -2.32450793      -2.58215657      -1.56648753        1 
H       1.01504145       2.98412467      -0.12982774        1 
H      -2.67087864       1.05497252       1.01745384        1 
H      -1.52843018       3.42776293       0.58371821        1 
H      -0.68633455       2.64674783       1.95316762        1 
H      -2.39857798       0.84633944      -1.61395294        1 
H      -0.67695341      -0.14637085       1.98937928        1 
H       1.12724127       1.19490835       1.62064151        1 
