29
Lattice="0.0 0.0 0.0 0.0 0.0 0.0 0.0 0.0 0.0" Properties=species:S:1:pos:R:3:Z:I:1 pbc="F F F"
C      -1.08564887      -0.27777041      -0.90464487        6 
C       0.39184825      -0.80750325      -0.88173902        6 
C      -1.40234606       1.13183813      -0.44782912        6 
C       1.48917346       0.19807639      -0.60917994        6 
O      -0.75878191       1.48966193       0.67681148        8 
O      -2.22991280       1.82687855      -0.99013327        8 
O       2.50977766      -0.35958502       0.07749958        8 
O       1.49249908       1.34283720      -0.98918550        8 
C       3.62994437       0.50219564       0.35241826        6 
C      -0.98745807       2.83336668       1.13357544        6 
C      -1.81775455      -1.36527200      -0.00404363        6 
C      -1.29261297      -1.22215409       1.41768004        6 
C      -0.02614986      -1.65012024       1.42685912        6 
C       0.31723168      -2.09155563       0.01437846        6 
C      -1.05681102      -2.63535790      -0.44686820        6 
H       4.08248085       0.84958249      -0.57758676        1 
H      -2.04977386       3.00339662       1.31406824        1 
H       0.68207372      -1.58957260       2.24154616        1 
H       4.33200244      -0.10719174       0.91724095        1 
H       3.30911841       1.36417548       0.93890436        1 
H      -0.41897918       2.92631592       2.05646344        1 
H      -0.62728584       3.54498721       0.38910146        1 
H       1.18069232      -2.74379698      -0.09507470        1 
H      -2.89940274      -1.35187039      -0.12953184        1 
H      -1.36534340      -3.52129376       0.10968442        1 
H      -1.11756842      -2.83207329      -1.52170944        1 
H      -1.82615903      -0.73923026       2.22470539        1 
H      -1.48727575      -0.33988176      -1.91511687        1 
H       0.61727256      -1.13881988      -1.90367857        1 
