29
Lattice="0.0 0.0 0.0 0.0 0.0 0.0 0.0 0.0 0.0" Properties=species:S:1:pos:R:3:Z:I:1 pbc="F F F"
C      -0.85313668       0.00023914      -1.05358410        6 
C       0.29520061      -1.00332745      -0.63701701        6 
C      -0.66578442       1.47630696      -0.74952077        6 
C       1.48744760      -0.44975605       0.11317110        6 
O      -0.86660927       1.79434516       0.53538105        8 
O      -0.42461421       2.29663104      -1.60749306        8 
O       2.63588823      -0.81296034      -0.50884141        8 
O       1.47050124       0.19725405       1.13071127        8 
C       3.85541193      -0.37440169       0.11665197        6 
C      -0.64661394       3.16746295       0.89797656        6 
C      -2.13273787      -0.68189073      -0.42230435        6 
C      -2.00759449      -0.64642001       1.09191430        6 
C      -1.03446487      -1.49311216       1.43941023        6 
C      -0.49599158      -2.11543248       0.16390142        6 
C      -1.78360536      -2.16452797      -0.68894501        6 
H       3.88271746       0.71476833       0.17507536        1 
H      -1.33144947       3.82306878       0.35746210        1 
H      -0.60397177      -1.62658159       2.42163343        1 
H       4.65645270      -0.74447818      -0.51932706        1 
H       3.94003792      -0.78912860       1.12260270        1 
H      -0.82970168       3.21383600       1.96904663        1 
H       0.38153429       3.45579426       0.67502334        1 
H       0.07109960      -3.03978257       0.26968802        1 
H      -3.06335389      -0.30250364      -0.84339805        1 
H      -2.52852745      -2.84835518      -0.27960229        1 
H      -1.60771658      -2.39574989      -1.74392049        1 
H      -2.53276571       0.04285098       1.73599057        1 
H      -0.93987003      -0.03532732      -2.13960508        1 
H       0.68819420      -1.45719975      -1.54644825        1 
