29
Lattice="0.0 0.0 0.0 0.0 0.0 0.0 0.0 0.0 0.0" Properties=species:S:1:pos:R:3:Z:I:1 pbc="F F F"
C      -0.78705150       0.22545630       0.75856157        6 
C       0.72761388       0.64752133       0.78185991        6 
C      -1.21270181      -1.00966363       0.00164071        6 
C       1.72700793      -0.15658795      -0.03171955        6 
O      -2.36250973      -1.48671165       0.54799854        8 
O      -0.69251250      -1.50536440      -0.96375573        8 
O       2.45353803      -0.95440954       0.79282623        8 
O       1.87097298      -0.14698683      -1.22526624        8 
C       3.38640854      -1.83578287       0.14058722        6 
C      -2.95403695      -2.61775384      -0.11519099        6 
C      -1.51648334       1.53498657       0.24432930        6 
C      -1.08280252       1.76869610      -1.18875062        6 
C       0.20338262       2.13204426      -1.16499187        6 
C       0.64914763       2.14992818       0.28839365        6 
C      -0.66166898       2.59322333       0.97440905        6 
H       2.85903810      -2.50417229      -0.54181880        1 
H      -2.26620791      -3.46478033      -0.11584271        1 
H       0.85942154       2.26114275      -2.01250760        1 
H       3.86263319      -2.39851171       0.94085245        1 
H       4.12716949      -1.26371800      -0.42013090        1 
H      -3.84955484      -2.85319747       0.45614887        1 
H      -3.21198274      -2.36645664      -1.14544775        1 
H       1.55181818       2.71839692       0.50970615        1 
H      -2.58678357       1.51913654       0.44333497        1 
H      -0.94783657       3.61206788       0.70858213        1 
H      -0.65492465       2.47949957       2.06279060        1 
H      -1.67969548       1.54196831      -2.06189287        1 
H      -1.10786890       0.06476848       1.78937835        1 
H       1.06651574       0.62485289       1.81717173        1 
