29
Lattice="0.0 0.0 0.0 0.0 0.0 0.0 0.0 0.0 0.0" Properties=species:S:1:pos:R:3:Z:I:1 pbc="F F F"
C      -0.66181362       0.93755640      -0.71127158        6 
C      -0.63543295      -0.61132348      -0.98033298        6 
C       0.54333959       1.71346441      -0.22043250        6 
C       0.56346386      -1.46317260      -0.61007490        6 
O       1.68791546       1.00967801      -0.22722001        8 
O       0.49908921       2.89890880       0.01418288        8 
O       0.86079252      -1.45154045       0.70196866        8 
O       1.12801182      -2.17956095      -1.40505337        8 
C       1.98595936      -2.25028897       1.09819311        6 
C       2.88630430       1.73679528       0.10029717        6 
C      -1.97697575       1.15317110       0.12151212        6 
C      -1.78236838       0.47918827       1.46784126        6 
C      -1.77814546      -0.84107007       1.25735140        6 
C      -1.96292361      -1.07367185      -0.23592798        6 
C      -2.88604234       0.11777587      -0.57972772        6 
H       1.83641735      -3.29515637       0.82221930        1 
H       2.82268661       2.13573604       1.11351953        1 
H      -1.56634399      -1.61749005       1.97825066        1 
H       2.05246550      -2.14268369       2.17890714        1 
H       2.89624044      -1.88263858       0.62076794        1 
H       3.69341742       1.01191346       0.02163832        1 
H       3.03719561       2.55825063      -0.60140222        1 
H      -2.29026432      -2.06875682      -0.53552244        1 
H      -2.30122575       2.19119450       0.13455420        1 
H      -3.86589800       0.03352605      -0.10787525        1 
H      -3.00525936       0.28804587      -1.65393064        1 
H      -1.57429486       0.99863554       2.39370411        1 
H      -0.83680662       1.41140651      -1.68497156        1 
H      -0.76214043      -0.78275018      -2.04858128        1 
