29
Lattice="0.0 0.0 0.0 0.0 0.0 0.0 0.0 0.0 0.0" Properties=species:S:1:pos:R:3:Z:I:1 pbc="F F F"
C      -0.67743019       0.51274359      -1.03152738        6 
C      -0.51795222      -1.02886322      -0.68835904        6 
C       0.49252728       1.40380805      -0.66876218        6 
C       0.70211329      -1.40623816       0.12886929        6 
O       0.56458308       1.67292348       0.64932716        8 
O       1.30260768       1.80564999      -1.46992464        8 
O       1.80372774      -1.37845075      -0.65270284        8 
O       0.72979876      -1.68739351       1.30132342        8 
C       3.05500493      -1.65628060       0.00050325        6 
C       1.68848476       2.46263977       1.07690055        6 
C      -2.09116713       0.84356726      -0.42462387        6 
C      -2.04076858       0.67504406       1.08435058        6 
C      -1.92327467      -0.63031299       1.34250328        6 
C      -1.88668523      -1.35972760       0.00707088        6 
C      -2.83140276      -0.45752897      -0.82135960        6 
H       3.23323869      -0.93621490       0.80083481        1 
H       1.66897480       3.44542103       0.60341620        1 
H      -1.75436392      -1.09895397       2.30013589        1 
H       3.81245128      -1.56362434      -0.77421692        1 
H       3.05113954      -2.66357938       0.41996853        1 
H       1.58394610       2.55179467       2.15584464        1 
H       2.62447409       1.96307428       0.82169186        1 
H      -2.10434932      -2.42676208       0.03289311        1 
H      -2.49860860       1.78333177      -0.79698839        1 
H      -3.85905674      -0.48245402      -0.45645620        1 
H      -2.81461234      -0.66464206      -1.89620764        1 
H      -1.99011237       1.48944382       1.79230009        1 
H      -0.74066000       0.60024767      -2.11660825        1 
H      -0.43407177      -1.56901216      -1.63373027        1 
