29
Lattice="0.0 0.0 0.0 0.0 0.0 0.0 0.0 0.0 0.0" Properties=species:S:1:pos:R:3:Z:I:1 pbc="F F F"
C      -0.57432221       0.93683333       0.65687138        6 
C       0.77209226       0.21591361       1.05748672        6 
C      -1.53870057       0.09997812      -0.15377425        6 
C       0.82551037      -1.24660027       0.66252876        6 
O      -2.73898815       0.02273722       0.45730723        8 
O      -1.30332493      -0.41632528      -1.22016321        8 
O       1.78252835      -1.53286012      -0.23450175        8 
O       0.09707394      -2.08048594       1.14926876        8 
C       1.82426100      -2.89687039      -0.69572724        6 
C      -3.73429548      -0.77748231      -0.20825961        6 
C      -0.05252653       2.21774337      -0.09837042        6 
C       0.64268567       1.77327284      -1.37416616        6 
C       1.78403702       1.17326311      -1.02446801        6 
C       1.86684447       1.19105679       0.49259736        6 
C       1.17710519       2.54613783       0.78259130        6 
H       1.99952192      -3.57872628       0.13749070        1 
H      -3.38689796      -1.80732137      -0.30105041        1 
H       2.47200618       0.64837223      -1.67037499        1 
H       2.64755411      -2.93667804      -1.40562112        1 
H       0.88253446      -3.15179341      -1.18323513        1 
H      -4.61726917      -0.72591177       0.42485944        1 
H      -3.94758738      -0.37672955      -1.20041924        1 
H       2.85254233       1.02516246       0.92469426        1 
H      -0.81810599       2.98612362      -0.20308214        1 
H       1.74492453       3.39579860       0.40156703        1 
H       0.93337949       2.70359620       1.83781100        1 
H       0.21107543       1.83157017      -2.36328700        1 
H      -1.09640872       1.24752613       1.56068536        1 
H       0.82558658       0.20341949       2.14896726        1 
