29
Lattice="0.0 0.0 0.0 0.0 0.0 0.0 0.0 0.0 0.0" Properties=species:S:1:pos:R:3:Z:I:1 pbc="F F F"
C      -0.79041789       0.25449605       0.75499763        6 
C       0.75333052       0.52359328       0.76017501        6 
C      -1.34291851      -1.01958359       0.15451335        6 
C       1.69072085      -0.33412123      -0.07245622        6 
O      -2.67482028      -1.08268513       0.42155952        8 
O      -0.76390028      -1.86546378      -0.47377103        8 
O       2.67899639      -0.82841682       0.71867902        8 
O       1.62408138      -0.55920086      -1.25125383        8 
C       3.63889185      -1.67047754       0.05603140        6 
C      -3.36678482      -2.23042174      -0.10121966        6 
C      -1.40858728       1.59270727       0.19218096        6 
C      -0.95327774       1.74001954      -1.24552160        6 
C       0.35820239       1.99852291      -1.22709859        6 
C       0.80192493       2.02570060       0.22771596        6 
C      -0.46943197       2.60098720       0.88947557        6 
H       3.13966844      -2.52974803      -0.39445955        1 
H      -2.96291428      -3.14922902       0.32751622        1 
H       1.02361434       2.04493331      -2.07672974        1 
H       4.33127107      -1.98983088       0.83221501        1 
H       4.16504406      -1.11492308      -0.72246350        1 
H      -4.40708543      -2.09903742       0.18899226        1 
H      -3.27303908      -2.27260290      -1.18756686        1 
H       1.74980310       2.51943355       0.43789236        1 
H      -2.47603224       1.67420739       0.38496313        1 
H      -0.66499496       3.63043709       0.58552700        1 
H      -0.47454080       2.52687388       1.98099963        1 
H      -1.56601635       1.53801652      -2.11412897        1 
H      -1.10280556       0.19953103       1.80316743        1 
H       1.11498259       0.49742718       1.78671407        1 
