29
Lattice="0.0 0.0 0.0 0.0 0.0 0.0 0.0 0.0 0.0" Properties=species:S:1:pos:R:3:Z:I:1 pbc="F F F"
C       0.98309174      -0.61299806      -0.79552613        6 
C       0.44121732       0.86020360      -0.94590673        6 
C       0.10323580      -1.77916572      -0.40299842        6 
C      -1.02786335       1.16973442      -0.71345735        6 
O      -1.00828774      -1.44171190       0.27103406        8 
O       0.39041707      -2.92218696      -0.67530886        8 
O      -1.37148928       1.30183317       0.57878410        8 
O      -1.79378728       1.40664609      -1.62055511        8 
C      -2.75295464       1.59927170       0.83472312        6 
C      -1.87432138      -2.52770925       0.65049008        6 
C       2.22510024      -0.43788693       0.16507322        6 
C       1.70542634      -0.01902825       1.52793855        6 
C       1.24675281       1.23114600       1.41504249        6 
C       1.44694017       1.66869502      -0.02850960        6 
C       2.75768651       0.91531817      -0.35809362        6 
H      -3.03655924       2.54756357       0.37558872        1 
H      -1.34923014      -3.22325426       1.30644064        1 
H       0.71736535       1.80284838       2.16251640        1 
H      -2.84166283       1.65443192       1.91777689        1 
H      -3.39092398       0.80784861       0.43728565        1 
H      -2.70782162      -2.06305152       1.17265827        1 
H      -2.22259095      -3.06172025      -0.23460644        1 
H       1.42316197       2.74149194      -0.21625664        1 
H       2.89431504      -1.29583658       0.13434615        1 
H       3.60595353       1.27937764       0.22279059        1 
H       3.01093783       0.90890708      -1.42239212        1 
H       1.62363949      -0.67313851       2.38592934        1 
H       1.37870660      -0.91961383      -1.76596684        1 
H       0.60119106       1.15841753      -1.98192718        1 
