29
Lattice="0.0 0.0 0.0 0.0 0.0 0.0 0.0 0.0 0.0" Properties=species:S:1:pos:R:3:Z:I:1 pbc="F F F"
C      -0.26918110      -0.98383007       0.70268712        6 
C      -0.83907149       0.46895229       0.92983115        6 
C       1.04129988      -1.17405376      -0.04052724        6 
C      -0.12559114       1.71586492       0.44945583        6 
O       2.05620605      -1.33139000       0.84254249        8 
O       1.19848292      -1.20823748      -1.23460855        8 
O       0.99785389       1.47873708      -0.24139383        8 
O      -0.53611035       2.82714902       0.69334385        8 
C       1.69488569       2.62666245      -0.75826193        6 
C       3.36468437      -1.49067472       0.26876015        6 
C      -1.46996008      -1.69029757      -0.03913305        6 
C      -1.63876499      -1.01352653      -1.39197539        6 
C      -2.13654956       0.20794309      -1.17337334        6 
C      -2.29786193       0.37152316       0.32708713        6 
C      -2.65943175      -1.07285747       0.72967347        6 
H       1.04203914       3.20061526      -1.41705329        1 
H       3.63103875      -0.61005769      -0.31821565        1 
H      -2.28719327       0.99568979      -1.89966641        1 
H       2.53838303       2.22266412      -1.31361027        1 
H       2.03523720       3.26521619       0.05810284        1 
H       4.04112548      -1.60755286       1.11273327        1 
H       3.39669241      -2.37160160      -0.37432830        1 
H      -2.94302555       1.17829236       0.66775286        1 
H      -1.38553742      -2.77643336      -0.05114455        1 
H      -3.62425568      -1.38710044       0.32834744        1 
H      -2.62983538      -1.25152339       1.80865556        1 
H      -1.29940764      -1.42518196      -2.33053690        1 
H      -0.13704299      -1.44188892       1.68340943        1 
H      -0.93657930       0.62648873       2.00783019        1 
