29
Lattice="0.0 0.0 0.0 0.0 0.0 0.0 0.0 0.0 0.0" Properties=species:S:1:pos:R:3:Z:I:1 pbc="F F F"
C      -0.67582318       0.67892738      -0.88305546        6 
C      -0.47334091      -0.88393592      -0.70588481        6 
C       0.25755779       1.58837548      -0.10420322        6 
C       0.72420981      -1.32090480       0.10931392        6 
O       1.53869673       1.40601588      -0.49216741        8 
O      -0.06713771       2.38457839       0.74089958        8 
O       1.77787351      -1.57144662      -0.69714174        8 
O       0.75165947      -1.49162856       1.30436538        8 
C       2.99724080      -1.95667642      -0.04178364        6 
C       2.52857366       2.17876998       0.21154564        6 
C      -2.18494015       0.86288336      -0.48305895        6 
C      -2.28785874       0.60203150       1.01395455        6 
C      -2.08392622      -0.70435835       1.20855777        6 
C      -1.86479624      -1.34384062      -0.15455225        6 
C      -2.78090621      -0.45441532      -1.03020607        6 
H       3.32793559      -1.17133441       0.64024919        1 
H       2.48904481       1.96026491       1.27972134        1 
H      -1.97025078      -1.21868287       2.15149972        1 
H       3.72283317      -2.09944375      -0.83971408        1 
H       2.85696804      -2.88167345       0.51988357        1 
H       3.48449226       1.87464430      -0.20940376        1 
H       2.36318907       3.24599618       0.05628091        1 
H      -2.00746830      -2.42263449      -0.21339218        1 
H      -2.61188596       1.79834584      -0.84103257        1 
H      -3.83688552      -0.56927296      -0.78276331        1 
H      -2.63581062      -0.59604139      -2.10609147        1 
H      -2.37388584       1.37290153       1.76488793        1 
H      -0.52818766       0.92105568      -1.93911329        1 
H      -0.32881893      -1.30784334      -1.70088903        1 
