29
Lattice="0.0 0.0 0.0 0.0 0.0 0.0 0.0 0.0 0.0" Properties=species:S:1:pos:R:3:Z:I:1 pbc="F F F"
C      -0.69509422       0.60556521      -0.99071700        6 
C      -0.59233504      -0.94985629      -0.74696176        6 
C       0.48232138       1.46087091      -0.57485332        6 
C       0.64194695      -1.47157995      -0.04252470        6 
O       0.77820592       1.34315024       0.73607664        8 
O       1.09626333       2.17620881      -1.32978876        8 
O       1.76041682      -1.06814600      -0.68320260        8 
O       0.65132848      -2.20814295       0.91233905        8 
C       3.00961157      -1.50755304      -0.12198496        6 
C       1.92878849       2.07307289       1.19368417        6 
C      -2.07733966       0.94753900      -0.30275519        6 
C      -1.95926315       0.67978195       1.18942533        6 
C      -1.87908470      -0.64349137       1.35982352        6 
C      -1.93788703      -1.28532061      -0.01769943        6 
C      -2.88316779      -0.29894807      -0.74151497        6 
H       3.11005482      -1.15058111       0.90443181        1 
H       1.79754656       3.14336430       1.02830950        1 
H      -1.67558778      -1.17975921       2.27523721        1 
H       3.77964818      -1.07534772      -0.75700102        1 
H       3.07007805      -2.59690524      -0.12934134        1 
H       2.00614126       1.85432277       2.25655242        1 
H       2.82280302       1.73744894       0.66501162        1 
H      -2.19084137      -2.34354201      -0.04745105        1 
H      -2.46244342       1.92380487      -0.59534932        1 
H      -3.89375084      -0.30967002      -0.33083466        1 
H      -2.92395853      -0.43689864      -1.82678180        1 
H      -1.83991286       1.44463316       1.94380814        1 
H      -0.79336723       0.78817586      -2.06038421        1 
H      -0.57979817      -1.43296297      -1.72970305        1 
