29
Lattice="0.0 0.0 0.0 0.0 0.0 0.0 0.0 0.0 0.0" Properties=species:S:1:pos:R:3:Z:I:1 pbc="F F F"
C      -0.73173187       0.46397600       0.92055736        6 
C       0.82449394       0.68270155       0.93907282        6 
C      -1.23772849      -0.80606531       0.26604247        6 
C       1.68993720      -0.53015889       0.65188670        6 
O      -2.58222588      -0.74658457       0.12620590        8 
O      -0.58467693      -1.76261023      -0.06765155        8 
O       2.08264095      -0.60576940      -0.63288521        8 
O       2.02537264      -1.31709584       1.50368275        8 
C       2.77578680      -1.81024622      -1.00367268        6 
C      -3.20963299      -1.89870556      -0.46649978        6 
C      -1.24223034       1.74997975       0.14817871        6 
C      -0.83389945       1.53850345      -1.30238680        6 
C       0.49771739       1.63982714      -1.36059297        6 
C       1.00004409       1.95642576       0.03845755        6 
C      -0.18724707       2.79047791       0.57803341        6 
H       3.69846973      -1.91751487      -0.43122664        1 
H      -3.01558205      -2.79017513       0.13169276        1 
H       1.13455762       1.43463550      -2.20838614        1 
H       2.99249778      -1.70567266      -2.06493144        1 
H       2.13242501      -2.67280572      -0.82488974        1 
H      -4.27339866      -1.67181703      -0.48352530        1 
H      -2.83520572      -2.05753273      -1.47912150        1 
H       1.99496448       2.39436961       0.10430786        1 
H      -2.28992085       1.97419553       0.33346205        1 
H      -0.30870211       3.74074432       0.05538704        1 
H      -0.14834608       2.96235991       1.65762956        1 
H      -1.50529404       1.23037486      -2.09309367        1 
H      -1.12144920       0.46233882       1.94193976        1 
H       1.09416565       0.95540518       1.96129444        1 
