29
Lattice="0.0 0.0 0.0 0.0 0.0 0.0 0.0 0.0 0.0" Properties=species:S:1:pos:R:3:Z:I:1 pbc="F F F"
C      -0.72693283       0.51302559      -1.00654612        6 
C      -0.44902761      -1.01378716      -0.69529411        6 
C       0.31422852       1.53810384      -0.61330590        6 
C       0.81699106      -1.33456282       0.07561599        6 
O       0.66586689       1.45719902       0.68172034        8 
O       0.77902140       2.35036002      -1.37933083        8 
O       1.86391018      -1.40749750      -0.78217011        8 
O       0.93149221      -1.47589327       1.26613008        8 
C       3.15347542      -1.64004705      -0.18802111        6 
C       1.66413040       2.38628449       1.13720764        6 
C      -2.16394498       0.72893867      -0.38141699        6 
C      -2.06546766       0.56646250       1.12382693        6 
C      -1.83101038      -0.72472173       1.37586468        6 
C      -1.77106762      -1.45006378       0.04005177        6 
C      -2.80180945      -0.62669802      -0.76617120        6 
H       3.39747366      -0.84266047       0.51592136        1 
H       1.30196392       3.41154147       1.04550744        1 
H      -1.59253035      -1.17454742       2.32773889        1 
H       3.85773160      -1.64887086      -1.01690152        1 
H       3.16491310      -2.59623687       0.33735880        1 
H       1.83909314       2.13046518       2.17971119        1 
H       2.58012517       2.27807768       0.55390820        1 
H      -1.90493455      -2.53089633       0.07042766        1 
H      -2.64499099       1.63419903      -0.74995884        1 
H      -3.81661568      -0.73416552      -0.38059793        1 
H      -2.78961160      -0.83048549      -1.84145370        1 
H      -2.05633044       1.38185675       1.83347955        1 
H      -0.81168652       0.62792998      -2.08724569        1 
H      -0.37059092      -1.53336760      -1.65176330        1 
