29
Lattice="0.0 0.0 0.0 0.0 0.0 0.0 0.0 0.0 0.0" Properties=species:S:1:pos:R:3:Z:I:1 pbc="F F F"
C      -0.64758604       0.65872034      -0.89859512        6 
C      -0.48091103      -0.90403153      -0.69036764        6 
C       0.24314192       1.63547593      -0.14123858        6 
C       0.72928339      -1.44881023       0.03919427        6 
O       1.54926062       1.32573650      -0.22541516        8 
O      -0.16173260       2.61518584       0.43794940        8 
O       1.82822901      -1.38405827      -0.73832799        8 
O       0.70674793      -2.01890119       1.10453861        8 
C       3.04181387      -1.89047316      -0.16107102        6 
C       2.45694865       2.21850836       0.44699144        6 
C      -2.15701673       0.86917064      -0.49290920        6 
C      -2.21809372       0.66566184       1.01730419        6 
C      -2.01998281      -0.63541442       1.25428328        6 
C      -1.85685118      -1.32751508      -0.08999622        6 
C      -2.78476192      -0.45756579      -0.97148173        6 
H       3.28839879      -1.34112126       0.74943406        1 
H       2.21875144       2.27431091       1.51002716        1 
H      -1.88860861      -1.12300548       2.20952366        1 
H       3.80877811      -1.73882708      -0.91757004        1 
H       2.94183565      -2.95051314       0.07828739        1 
H       3.44549330       1.79033524       0.29577346        1 
H       2.40065688       3.21804215       0.01330281        1 
H      -2.01174948      -2.40531761      -0.10119071        1 
H      -2.57825798       1.79800332      -0.87144812        1 
H      -3.83518941      -0.54553891      -0.69115900        1 
H      -2.67223727      -0.64221786      -2.04475981        1 
H      -2.27861257       1.46747435       1.73837697        1 
H      -0.49722309       0.88432292      -1.95881709        1 
H      -0.39500866      -1.33495372      -1.69255659        1 
