29
Lattice="0.0 0.0 0.0 0.0 0.0 0.0 0.0 0.0 0.0" Properties=species:S:1:pos:R:3:Z:I:1 pbc="F F F"
C      -0.64883139       0.74197129       0.68148165        6 
C       0.83827579       0.35318431       1.02909844        6 
C      -1.53039810      -0.27686896      -0.00315607        6 
C       1.30605025      -1.05895877       0.72240660        6 
O      -2.80043523      -0.15933622       0.45862878        8 
O      -1.21775384      -1.06445351      -0.86088285        8 
O       1.60598583      -1.26885981      -0.56516880        8 
O       1.47485696      -1.88994735       1.58756545        8 
C       1.95909313      -2.61370898      -0.92817572        6 
C      -3.77291950      -1.03509008      -0.14080475        6 
C      -0.47723137       2.07787046      -0.15129004        6 
C       0.21222268       1.73452567      -1.45665846        6 
C       1.47564123       1.40712684      -1.16954129        6 
C       1.65193164       1.51894874       0.33533979        6 
C       0.70028307       2.70259028       0.63052474        6 
H       2.84491717      -2.94215946      -0.38242699        1 
H      -3.49366172      -2.07822749       0.01494362        1 
H       2.21610349       1.00865721      -1.84693653        1 
H       2.15251946      -2.58144961      -1.99814904        1 
H       1.12778084      -3.28644776      -0.71313938        1 
H      -4.71208566      -0.81123199       0.36031941        1 
H      -3.85351680      -0.84273429      -1.21205433        1 
H       2.67568184       1.59559896       0.69953193        1 
H      -1.40214436       2.64944372      -0.21740616        1 
H       1.04470841       3.63651888       0.18399536        1 
H       0.49405078       2.85129855       1.69454077        1 
H      -0.28311600       1.64840963      -2.41418593        1 
H      -1.15758754       1.00089977       1.61037533        1 
H       0.95629045       0.43892475       2.10904711        1 
