29
Lattice="0.0 0.0 0.0 0.0 0.0 0.0 0.0 0.0 0.0" Properties=species:S:1:pos:R:3:Z:I:1 pbc="F F F"
C      -0.71687224       0.47927698      -1.00747724        6 
C      -0.46273335      -1.03081083      -0.66616096        6 
C       0.22541670       1.54734656      -0.49653697        6 
C       0.86379713      -1.42546366      -0.05957467        6 
O       0.84876889       1.21122230       0.64863072        8 
O       0.34269395       2.63028514      -1.02101383        8 
O       1.88554705      -0.96554481      -0.81533021        8 
O       1.01166330      -2.15949876       0.88601770        8 
C       3.20820616      -1.29033143      -0.35601641        6 
C       1.71874020       2.20341674       1.21768601        6 
C      -2.17330365       0.69600493      -0.39308909        6 
C      -2.03248631       0.61430898       1.11887798        6 
C      -1.75949311      -0.65703340       1.43064435        6 
C      -1.73481147      -1.45348311       0.13705401        6 
C      -2.79899623      -0.68617315      -0.68447381        6 
H       3.37433307      -0.87615686       0.64006874        1 
H       1.15831774       3.10510122       1.46974665        1 
H      -1.47922711      -1.05321448       2.39641658        1 
H       3.88560192      -0.83722154      -1.07653740        1 
H       3.34910515      -2.37172986      -0.32204736        1 
H       2.13148927       1.74527333       2.11382203        1 
H       2.51182752       2.46139386       0.51392728        1 
H      -1.84667168      -2.53174572       0.23107285        1 
H      -2.66839391       1.57757491      -0.79595724        1 
H      -3.80288397      -0.78327425      -0.26820911        1 
H      -2.81253726      -0.95007580      -1.74650105        1 
H      -2.01917351       1.46821669       1.78312935        1 
H      -0.76740587       0.62596011      -2.08595249        1 
H      -0.47734999      -1.56987934      -1.62069895        1 
