29
Lattice="0.0 0.0 0.0 0.0 0.0 0.0 0.0 0.0 0.0" Properties=species:S:1:pos:R:3:Z:I:1 pbc="F F F"
C      -0.67206966       0.63274368      -0.98192427        6 
C      -0.62778948      -0.92690365      -0.75325293        6 
C       0.54109423       1.44814795      -0.58583823        6 
C       0.58174994      -1.54870261      -0.08724000        6 
O       0.79014038       1.41572210       0.73947241        8 
O       1.21121404       2.07748043      -1.36905912        8 
O       1.73012056      -1.01263339      -0.54682542        8 
O       0.54319381      -2.48853636       0.66920573        8 
C       2.95014994      -1.57819528      -0.03613178        6 
C       1.97507419       2.10355580       1.17259413        6 
C      -2.02842454       1.01964403      -0.26770537        6 
C      -1.90099907       0.72223585       1.21926389        6 
C      -1.87531472      -0.60603288       1.36796040        6 
C      -1.97986753      -1.22145771      -0.01847645        6 
C      -2.89184275      -0.18492147      -0.71351007        6 
H       3.00030979      -1.45559619       1.04711083        1 
H       1.92424624       3.16206795       0.91396356        1 
H      -1.68578935      -1.16543886       2.27318706        1 
H       3.75000627      -1.02581615      -0.52423600        1 
H       3.01063237      -2.63986783      -0.27978849        1 
H       2.00899921       1.97190333       2.25209939        1 
H       2.85711551       1.66350533       0.70356454        1 
H      -2.27364201      -2.26800529      -0.06351087        1 
H      -2.37809548       2.01593451      -0.53653004        1 
H      -3.89637262      -0.16044067      -0.28883630        1 
H      -2.95274053      -0.30419813      -1.79993751        1 
H      -1.74169826       1.46961254       1.98334475        1 
H      -0.78244472       0.82387583      -2.04897784        1 
H      -0.65056846      -1.39962175      -1.74241793        1 
