29
Lattice="0.0 0.0 0.0 0.0 0.0 0.0 0.0 0.0 0.0" Properties=species:S:1:pos:R:3:Z:I:1 pbc="F F F"
C      -0.64832821       0.32506386       0.86419836        6 
C       0.85879741       0.73441353       0.75320718        6 
C      -1.11409947      -0.84598003       0.02966835        6 
C       1.81289762      -0.22864439       0.08140820        6 
O      -2.35377716      -1.22044045       0.42621784        8 
O      -0.52567720      -1.37742237      -0.87857510        8 
O       1.79603717      -1.42312198       0.70984688        8 
O       2.58160134       0.05386924      -0.80406535        8 
C       2.58529991      -2.46390798       0.10884230        6 
C      -2.95720144      -2.29853146      -0.31195792        6 
C      -1.37409764       1.65274209       0.36174694        6 
C      -1.07707241       1.75870416      -1.12680507        6 
C       0.22153865       2.04926727      -1.25885234        6 
C       0.80955330       2.16854094       0.13665554        6 
C      -0.40965231       2.72525639       0.90921170        6 
H       2.21047257      -2.67707645      -0.89340536        1 
H      -2.35665605      -3.20519455      -0.22249379        1 
H       0.80160165       2.07541389      -2.17017325        1 
H       2.46226008      -3.33138397       0.75399240        1 
H       3.63455994      -2.17079028       0.05359558        1 
H      -3.93745698      -2.44400400       0.13676180        1 
H      -3.05293923      -2.03513863      -1.36651734        1 
H       1.75231102       2.70580173       0.21694127        1 
H      -2.41969847       1.70158156       0.65986612        1 
H      -0.68777972       3.73109198       0.59038283        1 
H      -0.29292337       2.69901340       1.99681475        1 
H      -1.77088442       1.49638795      -1.91489770        1 
H      -0.92862499       0.12938155       1.89947360        1 
H       1.23735647       0.81700992       1.77793626        1 
