29
Lattice="0.0 0.0 0.0 0.0 0.0 0.0 0.0 0.0 0.0" Properties=species:S:1:pos:R:3:Z:I:1 pbc="F F F"
C       0.43324580       1.08948723       0.62831588        6 
C       0.68348408      -0.41771586       1.06392135        6 
C      -0.80415387       1.32015118      -0.21447901        6 
C      -0.42593084      -1.38942169       0.71584124        6 
O      -1.87977606       1.49059198       0.58568368        8 
O      -0.86896683       1.33660666      -1.41896937        8 
O      -0.36695991      -1.83845921      -0.55071304        8 
O      -1.29690766      -1.71017217       1.49075501        8 
C      -1.42709509      -2.71792042      -0.96618744        6 
C      -3.14967443       1.63188132      -0.07602503        6 
C       1.78732022       1.46555453      -0.07012658        6 
C       1.90390679       0.65827978      -1.35204356        6 
C       2.10982249      -0.61566672      -1.00888074        6 
C       2.13193217      -0.68687334       0.50839684        6 
C       2.77193568       0.68519944       0.83238957        6 
H      -1.43229922      -3.62485833      -0.35959758        1 
H      -3.36842062       0.74375898      -0.67128601        1 
H       2.13110095      -1.47358291      -1.66488017        1 
H      -1.21631892      -2.95159912      -2.00736143        1 
H      -2.39332708      -2.21974529      -0.87392502        1 
H      -3.88048688       1.74456635       0.72143713        1 
H      -3.14836221       2.50836508      -0.72578259        1 
H       2.59380172      -1.57107779       0.94718297        1 
H       1.93257424       2.54141650      -0.16217388        1 
H       3.80262864       0.75692548       0.48272909        1 
H       2.71761267       0.96036277       1.89035005        1 
H       1.72176699       1.04794475      -2.34230981        1 
H       0.30545493       1.67782543       1.53798809        1 
H       0.71687271      -0.44057277       2.15355904        1 
