29
Lattice="0.0 0.0 0.0 0.0 0.0 0.0 0.0 0.0 0.0" Properties=species:S:1:pos:R:3:Z:I:1 pbc="F F F"
C      -0.94032228      -0.29372434      -0.91158703        6 
C       0.57268185      -0.68142466      -0.71922707        6 
C      -1.57702982       1.04837954      -0.60214793        6 
C       1.60728494       0.19189260      -0.03377909        6 
O      -0.96572007       1.77111945       0.33551301        8 
O      -2.60561580       1.38887658      -1.14630805        8 
O       2.79410306       0.03641073      -0.68702394        8 
O       1.49409822       0.88321948       0.94281039        8 
C       3.91708401       0.72920557      -0.11666966        6 
C      -1.58656998       3.01798455       0.69387510        6 
C      -1.70252432      -1.45693025      -0.14733523        6 
C      -1.36337065      -1.32713020       1.32553026        6 
C      -0.08220851      -1.67966116       1.47771048        6 
C       0.45557699      -2.04537190       0.10430473        6 
C      -0.80779437      -2.64988208      -0.54190550        6 
H       3.73495881       1.80508445      -0.09881549        1 
H      -2.57906448       2.84319059       1.11282199        1 
H       0.51724002      -1.58945982       2.37272783        1 
H       4.76135604       0.49532566      -0.76184355        1 
H       4.10536076       0.38379769       0.90149353        1 
H      -0.92660052       3.45959923       1.43678311        1 
H      -1.67720736       3.66569071      -0.17941653        1 
H       1.37186491      -2.63312786       0.07384834        1 
H      -2.75721595      -1.50242594      -0.41202850        1 
H      -1.11529151      -3.57944356      -0.06034323        1 
H      -0.72415156      -2.79975817      -1.62209211        1 
H      -2.01570464      -0.89946890       2.07500431        1 
H      -1.16419266      -0.42743548      -1.97208094        1 
H       0.98216490      -0.91869878      -1.70049927        1 
