29
Lattice="0.0 0.0 0.0 0.0 0.0 0.0 0.0 0.0 0.0" Properties=species:S:1:pos:R:3:Z:I:1 pbc="F F F"
C       0.42579989       1.02322642       0.70686194        6 
C       0.74646385      -0.49788567       0.99639880        6 
C      -0.84647959       1.32788061      -0.05967611        6 
C      -0.24309480      -1.57071048       0.60198482        6 
O      -1.89457814       1.37449740       0.79939821        8 
O      -0.96699153       1.47055073      -1.24910244        8 
O      -0.73431955      -1.40634448      -0.63821832        8 
O      -0.54346013      -2.49670935       1.31972634        8 
C      -1.66847079      -2.39788584      -1.09883393        6 
C      -3.19026650       1.56477548       0.20344494        6 
C       1.73130828       1.50272845      -0.03297027        6 
C       1.79096458       0.79852755      -1.37896123        6 
C       2.05688212      -0.49046725      -1.14828624        6 
C       2.18091042      -0.67203172       0.35192208        6 
C       2.79238622       0.69221428       0.74591001        6 
H      -1.18674795      -3.37502280      -1.16343279        1 
H      -3.40639579       0.75857794      -0.49972144        1 
H       2.05528182      -1.29564416      -1.87029473        1 
H      -1.98329510      -2.05925419      -2.08342604        1 
H      -2.52015358      -2.46522876      -0.42016893        1 
H      -3.89603590       1.55156170       1.03109311        1 
H      -3.23329774       2.51902635      -0.32380679        1 
H       2.68538442      -1.57223673       0.70027524        1 
H       1.83887010       2.58659766      -0.05115096        1 
H       3.79755207       0.82722585       0.34419248        1 
H       2.79320209       0.88009763       1.82387508        1 
H       1.52957634       1.25428728      -2.32193845        1 
H       0.33884656       1.52884226       1.66979160        1 
H       0.85166580      -0.62399872       2.07407507        1 
