29
Lattice="0.0 0.0 0.0 0.0 0.0 0.0 0.0 0.0 0.0" Properties=species:S:1:pos:R:3:Z:I:1 pbc="F F F"
C      -0.80641517       0.31945914       1.05525419        6 
C       0.64194790       0.82394389       0.68615348        6 
C      -1.08071151      -1.13545669       0.72094234        6 
C       1.51272592      -0.15074515      -0.07191832        6 
O      -1.79077237      -1.31441064      -0.40204752        8 
O      -0.73558678      -2.04302400       1.44314464        8 
O       2.77537366      -0.13692597       0.40889383        8 
O       1.16965364      -0.83467914      -1.00619537        8 
C       3.70729813      -1.01564505      -0.24984043        6 
C      -1.98487265      -2.67860812      -0.81632178        6 
C      -1.72506446       1.42233827       0.40622458        6 
C      -1.57355269       1.35856245      -1.10484606        6 
C      -0.34626110       1.78896860      -1.40995937        6 
C       0.34335905       2.15736250      -0.11053447        6 
C      -0.86363658       2.67196050       0.70781860        6 
H       3.36298854      -2.04867823      -0.18451275        1 
H      -2.51167388      -3.24400043      -0.04624036        1 
H       0.13220946       1.76500809      -2.37926251        1 
H       4.64851367      -0.88953826       0.28034753        1 
H       3.81629761      -0.73934008      -1.29987523        1 
H      -2.57772295      -2.62218746      -1.72675325        1 
H      -1.01878774      -3.14351064      -1.01590130        1 
H       1.21552196       2.80575908      -0.18491145        1 
H      -2.74444079       1.40977905       0.78991736        1 
H      -1.29002419       3.58493012       0.28927388        1 
H      -0.64710627       2.81553343       1.77070827        1 
H      -2.29763184       0.92036797      -1.77521541        1 
H      -0.90348786       0.36770534       2.14110006        1 
H       1.17373929       1.08434802       1.60070902        1 
