29
Lattice="0.0 0.0 0.0 0.0 0.0 0.0 0.0 0.0 0.0" Properties=species:S:1:pos:R:3:Z:I:1 pbc="F F F"
C      -0.60584010       0.67487453       0.67523054        6 
C       0.88493182       0.33908545       0.99702173        6 
C      -1.63684324      -0.41140293       0.44953918        6 
C       1.59584251      -0.90386108       0.48608411        6 
O      -2.81034154       0.16586337       0.07662083        8 
O      -1.51205180      -1.59943523       0.58959531        8 
O       0.94281932      -1.57038826      -0.46964772        8 
O       2.73171231      -1.16171362       0.82114780        8 
C       1.62468787      -2.69272005      -1.05216436        6 
C      -3.91726984      -0.73023447      -0.12442270        6 
C      -0.53190727       1.88339322      -0.32277984        6 
C       0.22647942       1.44809257      -1.56313742        6 
C       1.50858883       1.28688861      -1.21894745        6 
C       1.62013350       1.57010652       0.27370154        6 
C       0.57079974       2.69233535       0.40440021        6 
H       2.53158803      -2.36573062      -1.56446622        1 
H      -4.14684824      -1.26985966       0.79598789        1 
H       2.30650798       0.88815043      -1.83146808        1 
H       0.91711391      -3.12315982      -1.75727936        1 
H       1.88865834      -3.41958209      -0.28309198        1 
H      -4.75329502      -0.09741055      -0.41502357        1 
H      -3.68887865      -1.44973126      -0.91234995        1 
H       2.61997631       1.74294181       0.66403280        1 
H      -1.49457848       2.36337527      -0.47972574        1 
H       0.86183603       3.59029855      -0.14240823        1 
H       0.31632972       2.95135755       1.43587777        1 
H      -0.23033926       1.21817326      -2.51671583        1 
H      -0.99414422       1.12355773       1.60067265        1 
H       1.07126226       0.38127544       2.06979624        1 
