29
Lattice="0.0 0.0 0.0 0.0 0.0 0.0 0.0 0.0 0.0" Properties=species:S:1:pos:R:3:Z:I:1 pbc="F F F"
C      -0.73213459       0.53409608      -0.99343522        6 
C      -0.50562718      -1.00507314      -0.72645976        6 
C       0.32943244       1.52325677      -0.56750064        6 
C       0.76358312      -1.39004584       0.00563607        6 
O       0.81351844       1.27672121       0.66420961        8 
O       0.69362194       2.45164483      -1.25056321        8 
O       1.83331135      -1.20233809      -0.80210325        8 
O       0.84955721      -1.80412592       1.13373612        8 
C       3.12106046      -1.44500386      -0.21046170        6 
C       1.83000309       2.17246723       1.14530451        6 
C      -2.15141771       0.77941698      -0.33415696        6 
C      -2.02263517       0.56922532       1.16417694        6 
C      -1.82962384      -0.73655072       1.37433356        6 
C      -1.82431135      -1.42348653       0.01660996        6 
C      -2.84333902      -0.54197383      -0.74212034        6 
H       3.26671697      -0.79478169       0.65391399        1 
H       1.43426586       3.18523914       1.23640771        1 
H      -1.58841028      -1.22506157       2.30639369        1 
H       3.84608627      -1.21752246      -0.98885262        1 
H       3.20939694      -2.48571655       0.10501437        1 
H       2.11781331       1.78344437       2.11951184        1 
H       2.68200186       2.18267546       0.46350296        1 
H      -1.99216803      -2.49952352       0.01935062        1 
H      -2.60684480       1.71205819      -0.66424960        1 
H      -3.85325087      -0.62618040      -0.33811455        1 
H      -2.86122149      -0.71386623      -1.82302318        1 
H      -1.97341096       1.36345420       1.89645174        1 
H      -0.83127042       0.69415548      -2.06703489        1 
H      -0.45717444      -1.50104014      -1.69921032        1 
