29
Lattice="0.0 0.0 0.0 0.0 0.0 0.0 0.0 0.0 0.0" Properties=species:S:1:pos:R:3:Z:I:1 pbc="F F F"
C      -0.46561159       0.83985236      -0.95325696        6 
C      -0.89663951      -0.67549701      -0.87510693        6 
C       0.98910950       1.19339847      -0.71140701        6 
C       0.00310437      -1.73433454      -0.26374524        6 
O       1.24056522       1.57366011       0.55720102        8 
O       1.82764923       1.19141060      -1.58019780        8 
O       1.25848470      -1.32630313      -0.02567609        8 
O      -0.38679178      -2.85323625      -0.02364505        8 
C       2.15018256      -2.30255927       0.54421621        6 
C       2.61274263       1.87419453       0.85787764        6 
C      -1.54604165       1.54372607      -0.05602807        6 
C      -1.41879616       1.01514778       1.36604127        6 
C      -1.84852283      -0.25099392       1.36855933        6 
C      -2.24813182      -0.59817082      -0.05858434        6 
C      -2.79684106       0.76448959      -0.53026461        6 
H       1.79167432      -2.61382850       1.52647845        1 
H       2.97398362       2.69409221       0.23535426        1 
H      -1.81061740      -0.95959952       2.18506280        1 
H       3.11230788      -1.80207960       0.62472332        1 
H       2.22351595      -3.17497444      -0.10588109        1 
H       2.62674834       2.15390327       1.90921135        1 
H       3.23581238       0.99484651       0.68564906        1 
H      -2.87231645      -1.47851820      -0.19110890        1 
H      -1.55661867       2.62699194      -0.16951211        1 
H      -3.70240318       1.05357259       0.00468073        1 
H      -2.96822493       0.82394177      -1.60940356        1 
H      -0.96075365       1.55607340       2.18094423        1 
H      -0.63026431       1.15490437      -1.98582289        1 
H      -1.10588651      -1.03678408      -1.88616307        1 
