29
Lattice="0.0 0.0 0.0 0.0 0.0 0.0 0.0 0.0 0.0" Properties=species:S:1:pos:R:3:Z:I:1 pbc="F F F"
C      -0.85600228       0.59989825       0.94445782        6 
C       0.71046195       0.55334556       0.83168249        6 
C      -1.66630746      -0.63862884       0.60273948        6 
C       1.35502395      -0.72158719       0.33264724        6 
O      -1.73488191      -0.89436934      -0.71451996        8 
O      -2.27879071      -1.26845981       1.43368128        8 
O       2.68828769      -0.53499520       0.19309056        8 
O       0.81057865      -1.76979940       0.09285311        8 
C       3.44125758      -1.67351776      -0.26472661        6 
C      -2.40680011      -2.10952482      -1.08431241        6 
C      -1.19973416       1.88006018       0.08147666        6 
C      -0.79429005       1.61633587      -1.36153616        6 
C       0.54123047       1.60005334      -1.41486626        6 
C       1.05388348       1.84273978      -0.00776906        6 
C      -0.03725805       2.80001587       0.52322897        6 
H       3.34912936      -2.50161887       0.43983178        1 
H      -3.43876492      -2.10495422      -0.73003438        1 
H       1.16003469       1.33853871      -2.26308885        1 
H       4.47275926      -1.33328791      -0.32335465        1 
H       3.08674254      -1.99662425      -1.24488080        1 
H      -2.37244804      -2.14071484      -2.17146001        1 
H      -1.87920174      -2.96527223      -0.66047883        1 
H       2.09230744       2.15028261       0.09037643        1 
H      -2.21558244       2.23963765       0.24046512        1 
H      -0.03972189       3.75757037       0.00015998        1 
H       0.00641629       2.96625543       1.60352201        1 
H      -1.48289378       1.37220267      -2.15693181        1 
H      -1.11719794       0.80394284       1.98246649        1 
H       1.12540910       0.69458912       1.83548330        1 
