29
Lattice="0.0 0.0 0.0 0.0 0.0 0.0 0.0 0.0 0.0" Properties=species:S:1:pos:R:3:Z:I:1 pbc="F F F"
C       0.54523767       0.99234555       0.72359181        6 
C       0.70374417      -0.54600923       1.00066889        6 
C      -0.73264281       1.47367305       0.07595470        6 
C      -0.37184104      -1.50389960       0.54183501        6 
O      -1.81055041       1.02235856       0.75485827        8 
O      -0.80385759       2.24136177      -0.85159545        8 
O      -0.83476188      -1.22936988      -0.69405900        8 
O      -0.73874333      -2.45637716       1.18911388        8 
C      -1.84344212      -2.11548228      -1.20763323        6 
C      -3.09519819       1.40172428       0.23227491        6 
C       1.85478890       1.36743214      -0.04562650        6 
C       1.80495376       0.67107896      -1.39393044        6 
C       1.95877676      -0.63898098      -1.17618140        6 
C       2.11052168      -0.84403192       0.32146275        6 
C       2.85755559       0.45533397       0.69940942        6 
H      -1.45419436      -3.13129849      -1.29242127        1 
H      -3.21095492       1.03369160      -0.78870868        1 
H       1.86313628      -1.43576796      -1.90132300        1 
H      -2.10159695      -1.72190498      -2.18859687        1 
H      -2.71585863      -2.12100964      -0.55205672        1 
H      -3.82519699       0.93652170       0.89120052        1 
H      -3.20817060       2.48677785       0.23803972        1 
H       2.54011793      -1.79020557       0.64721429        1 
H       2.05312211       2.43709014      -0.06205370        1 
H       3.85992831       0.49696607       0.27064650        1 
H       2.90830092       0.63667958       1.77750228        1 
H       1.55616523       1.15857950      -2.32569460        1 
H       0.55648701       1.49360361       1.69793623        1 
H       0.79721838      -0.72307595       2.07117583        1 
