29
Lattice="0.0 0.0 0.0 0.0 0.0 0.0 0.0 0.0 0.0" Properties=species:S:1:pos:R:3:Z:I:1 pbc="F F F"
C      -0.72247492       0.86791928      -0.83013473        6 
C      -0.59767227      -0.70118265      -0.96391631        6 
C       0.36912422       1.67395379      -0.14957238        6 
C       0.73272466      -1.35812666      -0.65561125        6 
O       1.58827165       1.12786981      -0.29379917        8 
O       0.17636003       2.73192006       0.40097876        8 
O       0.89689260      -1.64039834       0.65317978        8 
O       1.55081244      -1.63641329      -1.49870031        8 
C       2.15785182      -2.22973405       1.01080735        6 
C       2.69140234       1.85479050       0.27641460        6 
C      -2.10626916       1.04091788      -0.10069800        6 
C      -1.88475579       0.57206442       1.32988719        6 
C      -1.72051813      -0.75411216       1.29193499        6 
C      -1.85412984      -1.19901281      -0.15805882        6 
C      -2.88676891      -0.16438846      -0.66835750        6 
H       2.29983454      -3.17942495       0.49266340        1 
H       2.57590466       1.92818012       1.35889513        1 
H      -1.43985888      -1.40520396       2.10699665        1 
H       2.11313545      -2.38251140       2.08709018        1 
H       2.97610629      -1.55594240       0.75121857        1 
H       3.57791454       1.27889516       0.02033207        1 
H       2.74765710       2.85752420      -0.14898127        1 
H      -2.07512963      -2.25323761      -0.32237641        1 
H      -2.53408986       2.03266251      -0.22560279        1 
H      -3.86587525      -0.28291870      -0.20208316        1 
H      -2.99507888      -0.15221722      -1.75725391        1 
H      -1.76053358       1.23031821       2.17828919        1 
H      -0.78574263       1.28921275      -1.83939412        1 
H      -0.75714662      -0.94502892      -2.01558562        1 
