29
Lattice="0.0 0.0 0.0 0.0 0.0 0.0 0.0 0.0 0.0" Properties=species:S:1:pos:R:3:Z:I:1 pbc="F F F"
C      -0.74524280       0.88080897       0.61613341        6 
C       0.60120135       0.14687329       0.92463816        6 
C      -1.89693256       0.12897152      -0.01303015        6 
C       0.91819728      -1.08159391       0.08372243        6 
O      -2.18262515      -0.98138604       0.69327456        8 
O      -2.60292003       0.56395478      -0.89131691        8 
O       2.23480952      -1.38449229       0.19631442        8 
O       0.14803815      -1.76617510      -0.54002383        8 
C       2.66947792      -2.56270212      -0.50620778        6 
C      -3.25023884      -1.79921146       0.18713172        6 
C      -0.31017876       2.21034068      -0.06292721        6 
C       0.46880378       1.87491689      -1.32335179        6 
C       1.64715237       1.36285245      -0.94899812        6 
C       1.65154580       1.29640278       0.57565443        6 
C       0.85102766       2.57740004       0.89393318        6 
H       2.14410138      -3.44455069      -0.13595862        1 
H      -2.98003781      -2.19464176      -0.79341763        1 
H       2.41169010       0.93828206      -1.58584138        1 
H       3.73629958      -2.64135787      -0.30823765        1 
H       2.48332055      -2.45951511      -1.57647022        1 
H      -3.36026790      -2.60997119       0.90413130        1 
H      -4.17468874      -1.22505666       0.10878542        1 
H       2.61859646       1.15938757       1.05258084        1 
H      -1.12537366       2.92170953      -0.17502715        1 
H       1.38161238       3.47941977       0.58579647        1 
H       0.54644947       2.66726434       1.94085486        1 
H       0.07428183       1.95866370      -2.32671578        1 
H      -1.16239052       1.15433415       1.59350187        1 
H       0.66571784      -0.15055260       1.97312226        1 
