29
Lattice="0.0 0.0 0.0 0.0 0.0 0.0 0.0 0.0 0.0" Properties=species:S:1:pos:R:3:Z:I:1 pbc="F F F"
C      -0.65663156       0.50412624      -1.03701239        6 
C      -0.51876387      -1.03958120      -0.68359560        6 
C       0.53074371       1.37467600      -0.67777085        6 
C       0.68646415      -1.43609187       0.14755038        6 
O       0.49950301       1.81604870       0.59558763        8 
O       1.43925505       1.61446842      -1.43628735        8 
O       1.80798754      -1.35827535      -0.59678963        8 
O       0.67829143      -1.79493723       1.29982743        8 
C       3.04357958      -1.66307135       0.07302781        6 
C       1.63407177       2.58819907       1.02717188        6 
C      -2.06771414       0.85447876      -0.44226553        6 
C      -2.03254767       0.68781207       1.06845090        6 
C      -1.93688365      -0.61863415       1.33023439        6 
C      -1.89834642      -1.35074070      -0.00391616        6 
C      -2.82361545      -0.43707152      -0.84187631        6 
H       3.20103999      -0.97928442       0.90886505        1 
H       1.73377429       3.49316584       0.42590496        1 
H      -1.78627123      -1.08922276       2.29007149        1 
H       3.81853647      -1.53255438      -0.67849747        1 
H       3.03324503      -2.68836857       0.44623143        1 
H       1.43592664       2.83636119       2.06748092        1 
H       2.54883818       1.99972621       0.94032329        1 
H      -2.13016294      -2.41466342       0.02196899        1 
H      -2.46106054       1.79919721      -0.81729482        1 
H      -3.85437395      -0.44713481      -0.48517160        1 
H      -2.80140734      -0.64711155      -1.91611705        1 
H      -1.97973820       1.50341358       1.77456454        1 
H      -0.71098155       0.58010443      -2.12399817        1 
H      -0.42877474      -1.58455249      -1.62610724        1 
