29
Lattice="0.0 0.0 0.0 0.0 0.0 0.0 0.0 0.0 0.0" Properties=species:S:1:pos:R:3:Z:I:1 pbc="F F F"
C      -0.62006151       0.63520376      -0.98753665        6 
C      -0.62678969      -0.93796741      -0.78329179        6 
C       0.66086877       1.37838696      -0.66694491        6 
C       0.49527094      -1.59603678       0.00258603        6 
O       0.70800984       1.81722825       0.60910280        8 
O       1.56119570       1.53798474      -1.45357529        8 
O       1.70565620      -1.19305283      -0.42043616        8 
O       0.33573115      -2.43233356       0.85929304        8 
C       2.84462208      -1.79660215       0.21837788        6 
C       1.92719926       2.46991678       1.00397889        6 
C      -1.94874185       1.07186727      -0.27790353        6 
C      -1.86622060       0.71849247       1.19979770        6 
C      -1.92555312      -0.61270076       1.30332516        6 
C      -2.02650984      -1.17539228      -0.10837912        6 
C      -2.86703303      -0.06876241      -0.78288423        6 
H       2.82053896      -1.61240300       1.29353693        1 
H       2.10631523       3.35442890       0.39072547        1 
H      -1.79177218      -1.21297620       2.19135967        1 
H       3.71169881      -1.32348984      -0.23679549        1 
H       2.85455624      -2.87309642       0.04013920        1 
H       1.78403890       2.74738052       2.04606963        1 
H       2.77157321       1.78655247       0.89991979        1 
H      -2.37584111      -2.20223313      -0.19497345        1 
H      -2.24299677       2.09349766      -0.51644103        1 
H      -3.87735753      -0.00768302      -0.37607977        1 
H      -2.91267965      -0.14628626      -1.87386203        1 
H      -1.68251328       1.43124934       1.99047009        1 
H      -0.74337581       0.80727417      -2.05879518        1 
H      -0.59493675      -1.40466134      -1.77294239        1 
