29
Lattice="0.0 0.0 0.0 0.0 0.0 0.0 0.0 0.0 0.0" Properties=species:S:1:pos:R:3:Z:I:1 pbc="F F F"
C      -0.91152800       0.59686215      -0.80862503        6 
C      -0.16221499      -0.78140400      -0.81888815        6 
C      -0.23195465       1.76501011      -0.12523131        6 
C       1.09695113      -0.89210429       0.00789846        6 
O       0.98016202       1.99571242      -0.67173763        8 
O      -0.73208499       2.46834871       0.71702866        8 
O       1.91185406      -1.84098326      -0.50965997        8 
O       1.35262868      -0.28267750       1.01723796        8 
C       3.12175801      -2.10119299       0.22489976        6 
C       1.76154553       3.03006461      -0.04752260        6 
C      -2.32414614       0.24224716      -0.23945195        6 
C      -2.13581306      -0.18687751       1.20625281        6 
C      -1.52614433      -1.37665227       1.19752139        6 
C      -1.28618405      -1.75949803      -0.25526051        6 
C      -2.53494683      -1.13397008      -0.91528338        6 
H       3.73041987      -1.19799921       0.28887383        1 
H       1.94581477       2.77351246       0.99664419        1 
H      -1.13725439      -1.91736799       2.04975609        1 
H       3.64142969      -2.87442847      -0.33667670        1 
H       2.89013038      -2.44846213       1.23317533        1 
H       2.69558786       3.06515764      -0.60416022        1 
H       1.24448773       3.98917972      -0.10258355        1 
H      -1.07348270      -2.80778588      -0.46007727        1 
H      -3.06864413       1.01467285      -0.42160341        1 
H      -3.45907555      -1.61970540      -0.59911112        1 
H      -2.48587748      -1.10429793      -2.00833661        1 
H      -2.34745096       0.43903838       2.06075037        1 
H      -1.02030267       0.91016265      -1.85260855        1 
H       0.08096993      -1.07668836      -1.83933024        1 
