29
Lattice="0.0 0.0 0.0 0.0 0.0 0.0 0.0 0.0 0.0" Properties=species:S:1:pos:R:3:Z:I:1 pbc="F F F"
C      -0.66811604       0.17818656       0.90417881        6 
C       0.71511466       0.89445408       0.72669251        6 
C      -0.90047355      -1.08058298       0.09413011        6 
C       1.82207308       0.14172995       0.01906015        6 
O      -2.14971006      -1.54645907       0.32824804        8 
O      -0.12921609      -1.62283974      -0.65698405        8 
O       2.21584932      -0.91693417       0.75727459        8 
O       2.36236595       0.48926156      -1.00163425        8 
C       3.17328452      -1.79255467       0.13735065        6 
C      -2.52595444      -2.73719428      -0.38825240        6 
C      -1.68078886       1.31481042       0.44354941        6 
C      -1.49539681       1.43427914      -1.06241496        6 
C      -0.29273927       1.97856544      -1.27656511        6 
C       0.33189493       2.26283873       0.07988514        6 
C      -0.93492551       2.58101166       0.91100819        6 
H       2.73361008      -2.24253948      -0.75433087        1 
H      -1.86913659      -3.56708461      -0.12277135        1 
H       0.21780137       2.09953508      -2.22091046        1 
H       3.39446085      -2.55584059       0.88061203        1 
H       4.07788048      -1.24672161      -0.13409535        1 
H      -3.54903908      -2.94696290      -0.08371408        1 
H      -2.47257733      -2.56861125      -1.46492461        1 
H       1.14478052       2.98647125       0.09033129        1 
H      -2.69495625       1.15183652       0.80128036        1 
H      -1.43241637       3.49600250       0.58601046        1 
H      -0.75685120       2.61827189       1.99010659        1 
H      -2.16912902       1.01923079      -1.80080926        1 
H      -0.84554628      -0.07415638       1.95159924        1 
H       1.10326732       1.08493250       1.73199476        1 
