29
Lattice="0.0 0.0 0.0 0.0 0.0 0.0 0.0 0.0 0.0" Properties=species:S:1:pos:R:3:Z:I:1 pbc="F F F"
C      -0.85320962       0.55873350       0.95521478        6 
C       0.70944956       0.57380914       0.80022695        6 
C      -1.64533643      -0.69092983       0.61108239        6 
C       1.40433567      -0.67918209       0.31400080        6 
O      -1.67792241      -0.97038235      -0.70154841        8 
O      -2.28812237      -1.30147434       1.43455830        8 
O       2.73745183      -0.45349770       0.23305055        8 
O       0.90099992      -1.73679203       0.03075651        8 
C       3.53949452      -1.56176052      -0.21537347        6 
C      -2.34834070      -2.18577104      -1.07217541        6 
C      -1.26613326       1.83407133       0.10910165        6 
C      -0.90065394       1.58627858      -1.34757794        6 
C       0.43237337       1.60995731      -1.44440450        6 
C       0.98279045       1.86920996      -0.05578120        6 
C      -0.12004976       2.79008642       0.51363612        6 
H       3.44018064      -2.40693922       0.46761092        1 
H      -3.38638362      -2.17410615      -0.73648118        1 
H       1.03078559       1.36761575      -2.31276529        1 
H       4.56311462      -1.19375312      -0.22302739        1 
H       3.23531520      -1.87284834      -1.21606018        1 
H      -2.29408642      -2.22689333      -2.15819738        1 
H      -1.83190815      -3.04054774      -0.63273994        1 
H       2.01355387       2.21019812       0.00891090        1 
H      -2.28743913       2.15926907       0.30320805        1 
H      -0.17159342       3.74738971      -0.00732319        1 
H      -0.04525834       2.95630823       1.59220214        1 
H      -1.60676792       1.32302144      -2.12132203        1 
H      -1.09744852       0.74402343       2.00060452        1 
H       1.13899146       0.75065928       1.79216896        1 
