29
Lattice="0.0 0.0 0.0 0.0 0.0 0.0 0.0 0.0 0.0" Properties=species:S:1:pos:R:3:Z:I:1 pbc="F F F"
C       0.13404671       0.77432635       0.82874535        6 
C       0.93813640      -0.56942557       0.78759514        6 
C      -1.11537746       0.85370692      -0.01567447        6 
C       0.29562558      -1.77029973       0.12918148        6 
O      -1.97125593       1.76737851       0.49951490        8 
O      -1.33382096       0.25018198      -1.03709843        8 
O      -0.92932487      -2.00113916       0.64697823        8 
O       0.84142627      -2.50829827      -0.65330723        8 
C      -1.66353738      -3.09340117       0.06634394        6 
C      -3.17966120       1.98945028      -0.25038187        6 
C       1.21923954       1.80992446       0.28930476        6 
C       1.45248828       1.47993945      -1.17660525        6 
C       2.09634061       0.30964568      -1.22815867        6 
C       2.32488744      -0.15473629       0.19912896        6 
C       2.49956550       1.20853833       0.91059320        6 
H      -1.82175722      -2.91027841      -0.99740807        1 
H      -3.75620039       1.06613413      -0.32586173        1 
H       2.31032584      -0.28504208      -2.10477621        1 
H      -2.61394076      -3.11870089       0.59526085        1 
H      -1.12484286      -4.03298027       0.19871175        1 
H      -3.73314865       2.74206489       0.30681150        1 
H      -2.94745998       2.34793891      -1.25458662        1 
H       3.09730373      -0.90694247       0.34447343        1 
H       0.97189366       2.84299770       0.52810082        1 
H       3.40007882       1.73457418       0.59111259        1 
H       2.47125224       1.14547266       2.00263436        1 
H       1.03145437       2.02858154      -2.00837818        1 
H      -0.13240802       1.03711452       1.85187235        1 
H       1.08458531      -0.88350779       1.82732191        1 
