29
Lattice="0.0 0.0 0.0 0.0 0.0 0.0 0.0 0.0 0.0" Properties=species:S:1:pos:R:3:Z:I:1 pbc="F F F"
C       0.30805160       0.88072854       0.72699772        6 
C       0.82573845      -0.60142174       0.84670963        6 
C      -0.93077861       1.11828647      -0.11150747        6 
C       0.02185323      -1.72238402       0.22505197        6 
O      -1.92133330       1.64605468       0.64314509        8 
O      -1.04216137       0.91724259      -1.29607116        8 
O      -1.30388150      -1.51551771       0.35925176        8 
O       0.49488178      -2.73961906      -0.21980651        8 
C      -2.16934671      -2.53875836      -0.16469765        6 
C      -3.15655066       1.91224778      -0.04362844        6 
C       1.57898425       1.61047400       0.13355588        6 
C       1.81782174       1.06208056      -1.26518196        6 
C       2.25489657      -0.19474912      -1.13900540        6 
C       2.30857205      -0.51280530       0.34449703        6 
C       2.69142732       0.87136631       0.91253265        6 
H      -1.98235586      -2.68235778      -1.22944929        1 
H      -3.56879517       0.98874796      -0.45389090        1 
H       2.41402740      -0.91818239      -1.92650833        1 
H      -3.18072577      -2.17375462       0.00046313        1 
H      -2.01029709      -3.48080340       0.36258017        1 
H      -3.82358344       2.32901574       0.70788439        1 
H      -2.99957170       2.62357059      -0.85599972        1 
H       2.91137577      -1.36953769       0.63722086        1 
H       1.53018134       2.69467887       0.22923445        1 
H       3.69073735       1.18609471       0.60802335        1 
H       2.59221704       0.94773826       1.99981919        1 
H       1.54801510       1.57003897      -2.17968187        1 
H       0.10539822       1.27111410       1.72323641        1 
H       0.83175097      -0.85584172       1.91359038        1 
