29
Lattice="0.0 0.0 0.0 0.0 0.0 0.0 0.0 0.0 0.0" Properties=species:S:1:pos:R:3:Z:I:1 pbc="F F F"
C      -0.80193771       0.53158675      -0.90567863        6 
C      -0.33023180      -0.95939544      -0.69490080        6 
C      -0.02774340       1.69574001      -0.31814390        6 
C       0.95046268      -1.21465403       0.07590489        6 
O       1.25290022       1.40177233      -0.03653115        8 
O      -0.49515738       2.80363394      -0.19854035        8 
O       1.97663107      -1.42969512      -0.77811446        8 
O       1.06469087      -1.28046375       1.27492840        8 
C       3.25981297      -1.65027143      -0.17075678        6 
C       2.05091487       2.46983596       0.50630338        6 
C      -2.29295701       0.50174292      -0.40019528        6 
C      -2.22068049       0.31613896       1.10663826        6 
C      -1.79759975      -0.93135323       1.33723162        6 
C      -1.59501139      -1.60536739      -0.01410797        6 
C      -2.70754521      -0.91815855      -0.83930633        6 
H       3.54951276      -0.78457478       0.42729439        1 
H       1.62600640       2.81609602       1.44913094        1 
H      -1.52596664      -1.36850977       2.28641106        1 
H       3.95302802      -1.79403594      -0.99683224        1 
H       3.23603097      -2.53396018       0.46897115        1 
H       3.03691036       2.04009553       0.66704610        1 
H       2.10142404       3.30246808      -0.19645981        1 
H      -1.56857092      -2.69457792      -0.01192189        1 
H      -2.88012602       1.34208657      -0.76267894        1 
H      -3.70893273      -1.18486557      -0.49813419        1 
H      -2.62561467      -1.08955178      -1.91722316        1 
H      -2.36847021       1.10695426       1.82927396        1 
H      -0.79678895       0.73478831      -1.98275249        1 
H      -0.19121580      -1.40595089      -1.68022895        1 
