29
Lattice="0.0 0.0 0.0 0.0 0.0 0.0 0.0 0.0 0.0" Properties=species:S:1:pos:R:3:Z:I:1 pbc="F F F"
C      -1.12707084       0.11217668      -0.91393564        6 
C       0.03944253      -0.93964798      -0.91376193        6 
C      -0.90466348       1.51422890      -0.38762487        6 
C       1.44355672      -0.40542426      -0.72684909        6 
O       0.12033958       1.61088822       0.47595883        8 
O      -1.64275470       2.43548291      -0.64935826        8 
O       2.10221560      -1.02179230       0.27551608        8 
O       1.94117278       0.43993116      -1.43019543        8 
C       3.45298436      -0.58040058       0.50291185        6 
C       0.36120727       2.91440773       1.03343890        6 
C      -2.21374067      -0.62390425      -0.01192381        6 
C      -1.66985886      -0.63520930       1.40814501        6 
C      -0.63381992      -1.47963609       1.43527439        6 
C      -0.48206162      -2.06730600       0.04158145        6 
C      -1.96240927      -2.09340991      -0.41257873        6 
H       4.06369288      -0.74221885      -0.38654906        1 
H      -0.49968272       3.24443869       1.61709346        1 
H       0.05810560      -1.64593553       2.24848839        1 
H       3.81838629      -1.17957513       1.33407549        1 
H       3.46667953       0.48042501       0.75777914        1 
H       1.23593034       2.79978547       1.66964524        1 
H       0.55572671       3.63466485       0.23801322        1 
H       0.08604760      -2.99275833      -0.03302882        1 
H      -3.21409577      -0.21911905      -0.15250369        1 
H      -2.57015779      -2.79133510       0.16543390        1 
H      -2.09081666      -2.28757578      -1.48164400        1 
H      -1.99290121       0.03207921       2.19625784        1 
H      -1.52944693       0.23678367      -1.91900461        1 
H       0.07059004      -1.35803175      -1.92609045        1 
