29
Lattice="0.0 0.0 0.0 0.0 0.0 0.0 0.0 0.0 0.0" Properties=species:S:1:pos:R:3:Z:I:1 pbc="F F F"
C       0.36904236       0.85372508       0.72775938        6 
C       0.75094964      -0.67296404       0.87139278        6 
C      -0.84755931       1.14930622      -0.11842568        6 
C      -0.13325979      -1.64440678       0.11713438        6 
O      -1.76421936       1.85110655       0.58694693        8 
O      -1.00239656       0.84208108      -1.27545872        8 
O      -1.35772552      -1.69312522       0.69440528        8 
O       0.16366631      -2.28006695      -0.86100755        8 
C      -2.34426380      -2.49109501       0.01431065        6 
C      -2.97138065       2.19072701      -0.11926315        6 
C       1.70636202       1.48100603       0.17671490        6 
C       1.96103993       0.91863111      -1.21035778        6 
C       2.28974078      -0.36855039      -1.06967963        6 
C       2.25423364      -0.69234920       0.41547791        6 
C       2.72461505       0.65835676       1.00106926        6 
H      -2.48587128      -2.12399791      -1.00321473        1 
H      -3.48257092       1.28627715      -0.45331040        1 
H       2.42320633      -1.09995699      -1.85243124        1 
H      -3.25710169      -2.38050243       0.59590893        1 
H      -2.03498022      -3.53688979      -0.01801469        1 
H      -3.58347863       2.73488879       0.59659475        1 
H      -2.74648982       2.81440758      -0.98593737        1 
H       2.78480018      -1.59090290       0.72701040        1 
H       1.73561733       2.56552095       0.27838825        1 
H       3.75704119       0.89114190       0.73695307        1 
H       2.58789358       0.74578667       2.08349586        1 
H       1.77081732       1.44590540      -2.13442528        1 
H       0.17500935       1.26098560       1.71945394        1 
H       0.67411606      -0.93838242       1.92852176        1 
