29
Lattice="0.0 0.0 0.0 0.0 0.0 0.0 0.0 0.0 0.0" Properties=species:S:1:pos:R:3:Z:I:1 pbc="F F F"
C       0.23525350       1.01089979       0.69826438        6 
C       0.82314668      -0.42926706       0.96731747        6 
C      -1.06950677       1.16401039      -0.06153046        6 
C       0.09463573      -1.69871323       0.58294729        6 
O      -2.08420631       1.39141033       0.81109680        8 
O      -1.23869845       1.08530872      -1.25074350        8 
O      -0.67474161      -1.57923973      -0.50724525        8 
O       0.23451393      -2.73580350       1.19124092        8 
C      -1.34641339      -2.76862120      -0.95804241        6 
C      -3.39627291       1.50304126       0.23138420        6 
C       1.43176205       1.71506848      -0.05862642        6 
C       1.59030992       1.03120712      -1.40758401        6 
C       2.08617845      -0.18961748      -1.18431989        6 
C       2.26395860      -0.34358182       0.31361700        6 
C       2.62991808       1.10523251       0.70137275        6 
H      -0.61988308      -3.53745743      -1.22588208        1 
H      -3.65794737       0.58334449      -0.29472391        1 
H       2.22064367      -0.98275842      -1.90757550        1 
H      -1.91812089      -2.45935704      -1.83004992        1 
H      -2.00482890      -3.15496308      -0.17833719        1 
H      -4.07098632       1.67137578       1.06797701        1 
H      -3.43688124       2.33871371      -0.46910606        1 
H       2.91925826      -1.14370280       0.65409137        1 
H       1.34411509       2.80092461      -0.07521336        1 
H       3.58902384       1.41635601       0.28490705        1 
H       2.61348466       1.29062461       1.77925783        1 
H       1.23931906       1.43262383      -2.34626022        1 
H       0.08918002       1.49062924       1.66601104        1 
H       0.96477412      -0.53377273       2.04432965        1 
