29
Lattice="0.0 0.0 0.0 0.0 0.0 0.0 0.0 0.0 0.0" Properties=species:S:1:pos:R:3:Z:I:1 pbc="F F F"
C      -0.62353882       0.20988123       0.90622712        6 
C       0.78794976       0.83947685       0.67769774        6 
C      -0.98484990      -0.98951513       0.05106377        6 
C       1.88394225       0.00657373       0.05115838        6 
O      -2.24826962      -1.38334706       0.34214086        8 
O      -0.29968222      -1.54330912      -0.77069709        8 
O       2.00900871      -1.17476339       0.68882594        8 
O       2.66897289       0.40857836      -0.77314175        8 
C       2.99244337      -2.07853913       0.15862238        6 
C      -2.75008562      -2.50524968      -0.40658577        6 
C      -1.57137041       1.42629037       0.48704123        6 
C      -1.44977154       1.51308660      -1.02930323        6 
C      -0.21918609       1.95631351      -1.30914289        6 
C       0.48754584       2.21539622       0.00961265        6 
C      -0.71197834       2.64108664       0.89197615        6 
H       2.74163534      -2.33481431      -0.87188852        1 
H      -2.13905377      -3.39099154      -0.22515287        1 
H       0.25235034       2.02332908      -2.27963533        1 
H       2.94555029      -2.96243196       0.79127807        1 
H       3.98741189      -1.63210924       0.19336812        1 
H      -3.76536950      -2.66185702      -0.04855825        1 
H      -2.74960861      -2.28335785      -1.47497457        1 
H       1.35279858       2.87321820      -0.02780941        1 
H      -2.57691211       1.34475549       0.89309486        1 
H      -1.15754156       3.58386489       0.57101637        1 
H      -0.47939589       2.68546219       1.96015022        1 
H      -2.18650149       1.13929966      -1.72864085        1 
H      -0.78537292      -0.05828153       1.95097509        1 
H       1.18987518       1.04984764       1.67637706        1 
