29
Lattice="0.0 0.0 0.0 0.0 0.0 0.0 0.0 0.0 0.0" Properties=species:S:1:pos:R:3:Z:I:1 pbc="F F F"
C      -0.79136448       0.30671458       0.77048088        6 
C       0.75979892       0.50110984       0.77031190        6 
C      -1.37106667      -1.00354195       0.28610586        6 
C       1.62789398      -0.40896245      -0.07914823        6 
O      -2.72466743      -0.91356923       0.24863395        8 
O      -0.77162084      -2.00337248      -0.01144737        8 
O       2.73257123      -0.77155413       0.62203676        8 
O       1.43039416      -0.75228508      -1.21474956        8 
C       3.65620494      -1.62500802      -0.07671243        6 
C      -3.42181431      -2.10115668      -0.16893465        6 
C      -1.35034932       1.64009385       0.15069693        6 
C      -0.86691052       1.72960292      -1.28311640        6 
C       0.45154462       1.94703028      -1.25211104        6 
C       0.87609072       1.99227775       0.20840080        6 
C      -0.38252149       2.63429473       0.83303058        6 
H       3.16191241      -2.54948614      -0.37899117        1 
H      -3.21396344      -2.92710106       0.51336142        1 
H       1.13006086       1.94875950      -2.09325241        1 
H       4.45641013      -1.82968690       0.63142487        1 
H       4.04748689      -1.12284968      -0.96338826        1 
H      -4.47793682      -1.84104098      -0.14428765        1 
H      -3.11943469      -2.38663018      -1.17766549        1 
H       1.84000577       2.45082894       0.42354144        1 
H      -2.41632189       1.77201283       0.32022459        1 
H      -0.53259318       3.66102647       0.49617357        1 
H      -0.40542631       2.59326575       1.92606854        1 
H      -1.47417632       1.52626020      -2.15512670        1 
H      -1.09937729       0.32460851       1.82396727        1 
H       1.14121507       0.46901576       1.78929164        1 
