29
Lattice="0.0 0.0 0.0 0.0 0.0 0.0 0.0 0.0 0.0" Properties=species:S:1:pos:R:3:Z:I:1 pbc="F F F"
C      -0.72498326       0.69117680      -0.86670684        6 
C      -0.37723975      -0.84415894      -0.72095020        6 
C       0.17121164       1.63941719      -0.09461011        6 
C       0.83232869      -1.17426926       0.12312795        6 
O       1.36998786       1.74322999      -0.71749786        8 
O      -0.08790208       2.20220816       0.93710699        8 
O       1.73495205      -1.88312772      -0.59449257        8 
O       0.99211472      -0.88952272       1.28482247        8 
C       2.92901615      -2.27178329       0.10798491        6 
C       2.37167683       2.51228675      -0.02625456        6 
C      -2.23495728       0.73753767      -0.42860488        6 
C      -2.29603477       0.41756319       1.05787213        6 
C      -1.99166051      -0.87512846       1.20450677        6 
C      -1.73092980      -1.44459654      -0.17976928        6 
C      -2.72336758      -0.60545474      -1.01890329        6 
H       3.46028796      -1.39078297       0.47147234        1 
H       2.56411094       2.07844474       0.95609831        1 
H      -1.82392578      -1.40610412       2.13069430        1 
H       3.53197909      -2.80995663      -0.62009950        1 
H       2.68294930      -2.91521986       0.95427588        1 
H       3.25955044       2.46103386      -0.65282162        1 
H       2.04576738       3.54655032       0.09328868        1 
H      -1.78026525      -2.52860459      -0.28180761        1 
H      -2.74601230       1.64406214      -0.75010533        1 
H      -3.76376003      -0.81914213      -0.77028173        1 
H      -2.57427480      -0.69760188      -2.09952281        1 
H      -2.42897688       1.15158621       1.83786805        1 
H      -0.63091180       0.95577843      -1.92213904        1 
H      -0.19118241      -1.25209898      -1.71418206        1 
