29
Lattice="0.0 0.0 0.0 0.0 0.0 0.0 0.0 0.0 0.0" Properties=species:S:1:pos:R:3:Z:I:1 pbc="F F F"
C      -0.73131105       0.33598570      -1.07421367        6 
C      -0.24575868      -1.09761267      -0.60212858        6 
C       0.17981152       1.50346432      -0.74318593        6 
C       1.03334209      -1.13659887       0.20739983        6 
O       0.07681956       1.92318721       0.52652318        8 
O       0.91528569       2.01864392      -1.55510992        8 
O       2.05253105      -1.59710458      -0.55531548        8 
O       1.17222756      -0.80166344       1.35790832        8 
C       3.34684070      -1.63282454       0.07316184        6 
C       0.96621139       2.97853887       0.92894532        6 
C      -2.20606536       0.38673050      -0.51657712        6 
C      -2.15985081       0.38938236       1.00210942        6 
C      -1.74459197      -0.81750850       1.39652709        6 
C      -1.51617368      -1.65234743       0.14796734        6 
C      -2.62107671      -1.08239992      -0.77234049        6 
H       3.64809049      -0.62945424       0.37837814        1 
H       0.79225087       3.87630447       0.33368450        1 
H      -1.48989448      -1.12669108       2.39956109        1 
H       4.02531008      -2.02121343      -0.68302200        1 
H       3.32964702      -2.28472261       0.94789441        1 
H       0.74036742       3.15963798       1.97738032        1 
H       2.00344449       2.66174192       0.81216898        1 
H      -1.48496382      -2.73326548       0.28368798        1 
H      -2.80528064       1.16556464      -0.98757718        1 
H      -3.62434286      -1.30224621      -0.40557422        1 
H      -2.53136747      -1.39404785      -1.81790236        1 
H      -2.31649180       1.26080609       1.62021975        1 
H      -0.76514812       0.32752524      -2.16391440        1 
H      -0.06684056      -1.69639177      -1.49540133        1 
