29
Lattice="0.0 0.0 0.0 0.0 0.0 0.0 0.0 0.0 0.0" Properties=species:S:1:pos:R:3:Z:I:1 pbc="F F F"
C      -0.76202215       0.54903901       0.82092039        6 
C       0.79786608       0.54969493       1.00625919        6 
C      -1.36483776      -0.62770850       0.09076846        6 
C       1.49079954      -0.76479337       0.69985841        6 
O      -2.69888295      -0.67193327       0.30933217        8 
O      -0.78701885      -1.40921703      -0.62365345        8 
O       2.18342583      -0.74924319      -0.45122550        8 
O       1.45890504      -1.71073469       1.45107590        8 
C       2.73790965      -2.01110158      -0.86380061        6 
C      -3.41490312      -1.72407613      -0.36444229        6 
C      -1.00342508       1.89972809       0.02260239        6 
C      -0.42403867       1.69948169      -1.36702530        6 
C       0.90617836       1.65572966      -1.24505535        6 
C       1.24164033       1.83839833       0.22657180        6 
C       0.09328409       2.78563425       0.65249110        6 
H       3.42576512      -2.39622610      -0.10983299        1 
H      -3.05758816      -2.69976659      -0.03145835        1 
H       1.62663911       1.41511802      -2.01264878        1 
H       3.26178737      -1.80726747      -1.79537573        1 
H       1.93142381      -2.72794203      -1.02430429        1 
H      -4.45860247      -1.58477331      -0.09158607        1 
H      -3.28550444      -1.64436376      -1.44495907        1 
H       2.26018701       2.14960407       0.45321169        1 
H      -2.03461500       2.24365549       0.08080894        1 
H       0.15692366       3.76555373       0.17687314        1 
H      -0.00315466       2.90302655       1.73598400        1 
H      -1.00609537       1.49429041      -2.25593183        1 
H      -1.25951961       0.62262105       1.78869703        1 
H       0.99160287       0.70638169       2.06980794        1 
