29
Lattice="0.0 0.0 0.0 0.0 0.0 0.0 0.0 0.0 0.0" Properties=species:S:1:pos:R:3:Z:I:1 pbc="F F F"
C      -0.58777320       0.12012662       0.93182849        6 
C       0.72667943       0.90856641       0.59471951        6 
C      -0.87512753      -1.14378891       0.12654441        6 
C       1.90885911       0.20932617      -0.04072943        6 
O      -2.21111480      -1.38380711       0.11094774        8 
O      -0.08027626      -1.91846201      -0.34038172        8 
O       2.24842447      -0.88579438       0.66133946        8 
O       2.59179521       0.68035699      -0.91952481        8 
C       3.34349707      -1.66132281       0.14854869        6 
C      -2.62503770      -2.59614264      -0.54263952        6 
C      -1.68368538       1.22636596       0.59124610        6 
C      -1.70229351       1.28690796      -0.93439067        6 
C      -0.55227880       1.84551808      -1.32825650        6 
C       0.22867364       2.21725277      -0.07983551        6 
C      -0.93264325       2.54048111       0.89209199        6 
H       3.08381927      -2.06557801      -0.83118964        1 
H      -2.17178354      -3.46488949      -0.06261368        1 
H      -0.17796942       1.94400690      -2.33800516        1 
H       3.48576961      -2.46931666       0.86282467        1 
H       4.24572934      -1.05328269       0.06715681        1 
H      -3.70807414      -2.62430195      -0.44203407        1 
H      -2.33770057      -2.57900844      -1.59526591        1 
H       1.01339676       2.95987670      -0.20469228        1 
H      -2.64018880       1.05777085       1.07926099        1 
H      -1.50558129       3.41790177       0.58826555        1 
H      -0.61736038       2.64921881       1.93412953        1 
H      -2.46102220       0.83374892      -1.55743114        1 
H      -0.61598753      -0.16704936       1.98531463        1 
H       1.14347222       1.20295902       1.56646431        1 
