29
Lattice="0.0 0.0 0.0 0.0 0.0 0.0 0.0 0.0 0.0" Properties=species:S:1:pos:R:3:Z:I:1 pbc="F F F"
C       0.42380192       1.05475271       0.60639736        6 
C       0.68522244      -0.43147013       1.01171997        6 
C      -0.92313350       1.52853862       0.11145800        6 
C      -0.18483720      -1.56430244       0.50875401        6 
O      -1.93641270       0.79313122       0.61046642        8 
O      -1.09277579       2.56906492      -0.47941704        8 
O      -0.79224970      -1.31529896      -0.66469851        8 
O      -0.22121666      -2.64385856       1.05438374        8 
C      -1.55605551      -2.39496512      -1.22600349        6 
C      -3.26530947       1.25038912       0.30427948        6 
C       1.67946687       1.46413283      -0.22859926        6 
C       1.72141495       0.60079119      -1.47545459        6 
C       2.02194786      -0.64531692      -1.09547136        6 
C       2.15914810      -0.64422168       0.42000693        6 
C       2.76010235       0.76208007       0.63041722        6 
H      -0.92199449      -3.26583766      -1.40025864        1 
H      -3.42321030       1.26054938      -0.77530614        1 
H       2.03463070      -1.53270522      -1.71452546        1 
H      -1.95002016      -2.01307981      -2.16553822        1 
H      -2.36927679      -2.67477012      -0.55416739        1 
H      -3.93333693       0.53671737       0.78161330        1 
H      -3.42723986       2.25420735       0.69995158        1 
H       2.66811139      -1.49656207       0.86566614        1 
H       1.76051072       2.53827666      -0.37726098        1 
H       3.75945239       0.85071267       0.20192755        1 
H       2.77425754       1.08751684       1.67476981        1 
H       1.44366082       0.93618336      -2.46561444        1 
H       0.49656936       1.62435108       1.54332822        1 
H       0.71691592      -0.53992153       2.09491987        1 
