29
Lattice="0.0 0.0 0.0 0.0 0.0 0.0 0.0 0.0 0.0" Properties=species:S:1:pos:R:3:Z:I:1 pbc="F F F"
C      -0.85828541       0.53888797      -0.84867821        6 
C      -0.25810008      -0.91011071      -0.71601215        6 
C      -0.13330275       1.76586053      -0.33560016        6 
C       1.01297382      -1.12245652       0.08627413        6 
O       1.15330210       1.54061859      -0.02636257        8 
O      -0.63699949       2.86487864      -0.32308681        8 
O       2.02432925      -1.49253476      -0.73503388        8 
O       1.14021803      -1.02298854       1.28077911        8 
C       3.29345529      -1.72254607      -0.10003485        6 
C       1.91749993       2.67748575       0.41470331        6 
C      -2.32202746       0.38419361      -0.29187039        6 
C      -2.20149474       0.09887924       1.19492662        6 
C      -1.69432345      -1.13127049       1.32647559        6 
C      -1.47568253      -1.69240918      -0.07290834        6 
C      -2.64987005      -1.02674517      -0.82523995        6 
H       3.63272140      -0.81904242       0.40916683        1 
H       1.46051854       3.12019632       1.30032039        1 
H      -1.37515253      -1.61395773       2.23812174        1 
H       3.97676685      -1.98978973      -0.90333438        1 
H       3.21839616      -2.53405436       0.62585346        1 
H       2.90492903       2.28645592       0.64915340        1 
H       1.97543601       3.42736828      -0.37583172        1 
H      -1.37527505      -2.77460863      -0.15146173        1 
H      -2.97121237       1.20659475      -0.58333432        1 
H      -3.62172430      -1.38836727      -0.48560727        1 
H      -2.58161160      -1.11464676      -1.91407628        1 
H      -2.38248232       0.82351602       1.97729964        1 
H      -0.94141399       0.74887564      -1.92179892        1 
H      -0.07146459      -1.29935794      -1.71624221        1 
