29
Lattice="0.0 0.0 0.0 0.0 0.0 0.0 0.0 0.0 0.0" Properties=species:S:1:pos:R:3:Z:I:1 pbc="F F F"
C      -0.72308276       0.43405653       0.95717232        6 
C       0.82440071       0.70888287       0.91097491        6 
C      -1.20624638      -0.84422417       0.29432613        6 
C       1.72179996      -0.48222973       0.63755973        6 
O      -2.53494468      -0.76688408       0.04769332        8 
O      -0.55498511      -1.83168711       0.06406422        8 
O       2.13016004      -0.54522313      -0.64452297        8 
O       2.04676106      -1.27607251       1.48574347        8 
C       2.86308178      -1.72942061      -1.00699523        6 
C      -3.13643800      -1.93014158      -0.54947362        6 
C      -1.30035236       1.71106027       0.21532696        6 
C      -0.96214377       1.49984166      -1.25487549        6 
C       0.36266229       1.62747364      -1.38085818        6 
C       0.92705067       1.97054742      -0.01224032        6 
C      -0.25160636       2.78117338       0.58065515        6 
H       3.78778649      -1.80168165      -0.43232893        1 
H      -3.00221357      -2.80305390       0.09084924        1 
H       0.96107302       1.43202825      -2.25881965        1 
H       3.07876133      -1.62405936      -2.06839502        1 
H       2.24958664      -2.61230565      -0.82277132        1 
H      -4.19213152      -1.68871154      -0.65342434        1 
H      -2.69109896      -2.12902639      -1.52571766        1 
H       1.91380798       2.43103044      -0.00030566        1 
H      -2.34239758       1.91276606       0.45086654        1 
H      -0.42403900       3.72239867       0.05602454        1 
H      -0.16021163       2.96616032       1.65494861        1 
H      -1.66742285       1.17542421      -2.00817570        1 
H      -1.07005806       0.39585797       1.99316124        1 
H       1.11395534       1.01699811       1.91844021        1 
