29
Lattice="0.0 0.0 0.0 0.0 0.0 0.0 0.0 0.0 0.0" Properties=species:S:1:pos:R:3:Z:I:1 pbc="F F F"
C       0.26002035       0.92919818       0.91653064        6 
C       1.01504258      -0.45384737       0.90884221        6 
C      -1.24197053       0.92236253       0.72983685        6 
C       0.40037190      -1.69193110       0.27753649        6 
O      -1.62554923       1.42951572      -0.46015298        8 
O      -2.01879776       0.53884796       1.57001814        8 
O      -0.88265259      -1.55217916      -0.08827232        8 
O       1.03547094      -2.70379405       0.09116496        8 
C      -1.50183573      -2.69242301      -0.71058085        6 
C      -3.04006691       1.41863215      -0.71593376        6 
C       1.13815027       1.82004912      -0.02470236        6 
C       1.15532675       1.19934649      -1.41204778        6 
C       1.87767566       0.07604560      -1.34603220        6 
C       2.33019036      -0.08973953       0.09813212        6 
C       2.53440877       1.38697307       0.48905123        6 
H      -0.98452729      -2.94591654      -1.63695194        1 
H      -3.56972722       2.02338224       0.02183985        1 
H       2.02160741      -0.66318981      -2.12288227        1 
H      -2.52696978      -2.38925845      -0.91119206        1 
H      -1.48091805      -3.55042567      -0.03767840        1 
H      -3.15964365       1.83801504      -1.71272106        1 
H      -3.42080485       0.39678267      -0.67897708        1 
H       3.14254597      -0.78997911       0.27528354        1 
H       0.88740704       2.87830804       0.02684127        1 
H       3.35039270       1.85081145      -0.06727437        1 
H       2.67776424       1.54757218       1.56149635        1 
H       0.58949972       1.56930225      -2.25515826        1 
H       0.37341931       1.32211468       1.93092096        1 
H       1.27534159      -0.73947680       1.93044848        1 
