29
Lattice="0.0 0.0 0.0 0.0 0.0 0.0 0.0 0.0 0.0" Properties=species:S:1:pos:R:3:Z:I:1 pbc="F F F"
C       0.50629440       1.05592233       0.67809637        6 
C       0.66561178      -0.48255876       1.04071315        6 
C      -0.70434556       1.41580785      -0.15954915        6 
C      -0.50640015      -1.37522678       0.69021880        6 
O      -1.81421588       1.41268338       0.60959326        8 
O      -0.71918004       1.66534786      -1.33979788        8 
O      -0.50946706      -1.76852236      -0.59840844        8 
O      -1.37332060      -1.67997706       1.47465434        8 
C      -1.61956793      -2.58465190      -1.01263462        6 
C      -3.06051865       1.65217982      -0.06812879        6 
C       1.88102503       1.38105950      -0.00584327        6 
C       1.92746886       0.64239178      -1.33439459        6 
C       2.04062760      -0.66098254      -1.06598272        6 
C       2.08006543      -0.81963162       0.44379622        6 
C       2.82009914       0.48348104       0.83398370        6 
H      -1.63578180      -3.52110416      -0.45275620        1 
H      -3.22334505       0.89735410      -0.83930016        1 
H       1.99193512      -1.47955224      -1.76926531        1 
H      -1.45988392      -2.77278703      -2.07208325        1 
H      -2.56170646      -2.05789026      -0.85408082        1 
H      -3.82597248       1.58299345       0.70121812        1 
H      -3.06228625       2.64123548      -0.52874442        1 
H       2.48553800      -1.75756554       0.82292021        1 
H       2.09824745       2.44784067      -0.03959231        1 
H       3.84868860       0.50346948       0.47153643        1 
H       2.79963151       0.69885388       1.90694665        1 
H       1.76564967       1.10215937      -2.29756675        1 
H       0.40736099       1.60545038       1.61621327        1 
H       0.72455880      -0.55218786       2.12744277        1 
