29
Lattice="0.0 0.0 0.0 0.0 0.0 0.0 0.0 0.0 0.0" Properties=species:S:1:pos:R:3:Z:I:1 pbc="F F F"
C      -0.88189442       0.58496590      -0.80596185        6 
C      -0.20097180      -0.82749842      -0.76854929        6 
C      -0.17432853       1.77557543      -0.19665527        6 
C       1.04627671      -0.98873387       0.07266321        6 
O       1.14666241       1.75710046      -0.46228211        8 
O      -0.73601318       2.70976049       0.32245418        8 
O       1.95822450      -1.74414472      -0.58382555        8 
O       1.22180536      -0.56592712       1.18859601        8 
C       3.17787821      -2.01570612       0.12915312        6 
C       1.91336016       2.85670074       0.06004517        6 
C      -2.32648193       0.32488600      -0.26385602        6 
C      -2.19384117      -0.06196117       1.19877583        6 
C      -1.63483041      -1.27572425       1.24303955        6 
C      -1.38437667      -1.72251002      -0.19031859        6 
C      -2.58793320      -1.06092166      -0.89843282        6 
H       3.68075578      -1.08337342       0.39071449        1 
H       1.84632270       2.87418536       1.14865314        1 
H      -1.28753658      -1.80257043       2.12073149        1 
H       3.78849029      -2.60344170      -0.55287360        1 
H       2.97156841      -2.57818938       1.04141142        1 
H       2.93759633       2.67186868      -0.25612915        1 
H       1.54960190       3.80333919      -0.34211981        1 
H      -1.22610880      -2.78842128      -0.35093995        1 
H      -3.02168613       1.12905894      -0.49391919        1 
H      -3.54081880      -1.49148401      -0.58751970        1 
H      -2.51520557      -1.07078189      -1.99055974        1 
H      -2.39698338       0.59982309       2.02879938        1 
H      -0.96515534       0.86476453      -1.86386302        1 
H       0.03358258      -1.15881763      -1.77895502        1 
