29
Lattice="0.0 0.0 0.0 0.0 0.0 0.0 0.0 0.0 0.0" Properties=species:S:1:pos:R:3:Z:I:1 pbc="F F F"
C      -0.50503322       0.74267748       0.84108143        6 
C       1.02062176       0.38849431       0.92339072        6 
C      -1.47789581      -0.37679360       0.54452790        6 
C       1.52415577      -0.97000276       0.47908135        6 
O      -2.61132552       0.10701382      -0.01215984        8 
O      -1.31290775      -1.54362078       0.79957204        8 
O       1.00280109      -1.38137530      -0.68892625        8 
O       2.39410446      -1.57030811       1.06701843        8 
C       1.40093078      -2.68662036      -1.13860772        6 
C      -3.64363621      -0.85930379      -0.28414368        6 
C      -0.54987268       2.02699325      -0.05945416        6 
C      -0.10077217       1.62885693      -1.45270292        6 
C       1.20608033       1.35513585      -1.39176825        6 
C       1.65443236       1.55722786       0.04731660        6 
C       0.72977774       2.72734606       0.45389604        6 
H       2.48453642      -2.74411191      -1.25088894        1 
H      -3.95263489      -1.35812733       0.63556417        1 
H       1.82328233       0.94053631      -2.17672662        1 
H       0.90615925      -2.82506445      -2.09779250        1 
H       1.06816682      -3.44254331      -0.42562161        1 
H      -4.46818975      -0.29029362      -0.70823641        1 
H      -3.28712970      -1.60664937      -0.99472464        1 
H       2.72432346       1.67236924       0.21327941        1 
H      -1.48905552       2.57064164       0.01237449        1 
H       0.95352219       3.64373403      -0.09425087        1 
H       0.72208283       2.92893650       1.52918569        1 
H      -0.76300735       1.48510291      -2.29577050        1 
H      -0.80598148       1.05566676       1.84995947        1 
H       1.37214026       0.49479973       1.94833169        1 
