29
Lattice="0.0 0.0 0.0 0.0 0.0 0.0 0.0 0.0 0.0" Properties=species:S:1:pos:R:3:Z:I:1 pbc="F F F"
C      -0.91091996       0.46996608       0.95135341        6 
C       0.63557022       0.65669525       0.78243623        6 
C      -1.60594173      -0.81560636       0.54192177        6 
C       1.48578261      -0.54671514       0.43815144        6 
O      -1.29956259      -1.22689742      -0.69770548        8 
O      -2.45617708      -1.34033108       1.22484985        8 
O       2.74376785      -0.15009832       0.12962495        8 
O       1.14667632      -1.70289507       0.44682960        8 
C       3.67544622      -1.20204666      -0.18379317        6 
C      -1.91356921      -2.45151876      -1.13093617        6 
C      -1.46188703       1.70878624       0.11315571        6 
C      -1.12341489       1.46828268      -1.35043042        6 
C       0.19998919       1.59570824      -1.48815987        6 
C       0.76935992       1.93500604      -0.12473504        6 
C      -0.39346698       2.76809227       0.46306682        6 
H       3.78159814      -1.88414123       0.66122572        1 
H      -3.00132178      -2.37237918      -1.09740667        1 
H       0.79102839       1.38269240      -2.36894868        1 
H       4.61813696      -0.70125874      -0.39310947        1 
H       3.33655588      -1.76353382      -1.05587989        1 
H      -1.56868189      -2.60160244      -2.15185284        1 
H      -1.59032384      -3.27669976      -0.49452081        1 
H       1.76595712       2.36949539      -0.10507919        1 
H      -2.50122246       1.94039592       0.34086834        1 
H      -0.54810165       3.70563909      -0.07338713        1 
H      -0.30066202       2.96371443       1.53539534        1 
H      -1.82733109       1.12935230      -2.09734336        1 
H      -1.18499038       0.60851220       1.99610756        1 
H       1.02182101       0.94545303       1.76854982        1 
