29
Lattice="0.0 0.0 0.0 0.0 0.0 0.0 0.0 0.0 0.0" Properties=species:S:1:pos:R:3:Z:I:1 pbc="F F F"
C      -1.09646733       0.36257502      -0.88176715        6 
C      -0.20470472      -0.93260383      -0.94717384        6 
C      -0.53118138       1.66851025      -0.36797352        6 
C       1.28661137      -0.74522525      -0.75512195        6 
O       0.55309208       1.51706508       0.41253291        8 
O      -1.04804111       2.73906384      -0.58638327        8 
O       1.75053219      -1.29684581       0.38261028        8 
O       1.99874269      -0.21713308      -1.57568303        8 
C       3.15957119      -1.14285763       0.62276469        6 
C       1.12961528       2.72280219       0.94495417        6 
C      -2.30029327      -0.11567767       0.03996913        6 
C      -1.73590675      -0.29909042       1.43967373        6 
C      -0.93470568      -1.36862549       1.41115613        6 
C      -0.96172326      -1.92994902      -0.00188041        6 
C      -2.41749355      -1.58929930      -0.40551596        6 
H       3.73890125      -1.63151205      -0.16219350        1 
H       0.41850540       3.22746756       1.60076113        1 
H      -0.28371787      -1.72246671       2.19706352        1 
H       3.34408451      -1.61490750       1.58544500        1 
H       3.42350537      -0.08476727       0.65445831        1 
H       2.00563026       2.40181417       1.50407953        1 
H       1.41392598       3.39533300       0.13501132        1 
H      -0.63716018      -2.96301804      -0.11691073        1 
H      -3.17705810       0.52155628      -0.05785559        1 
H      -3.15646139      -2.14173117       0.17684798        1 
H      -2.62105537      -1.71268026      -1.47349613        1 
H      -1.86929357       0.39969926       2.25494915        1 
H      -1.49091906       0.59134923      -1.87213982        1 
H      -0.28104738      -1.31048145      -1.97042879        1 
