29
Lattice="0.0 0.0 0.0 0.0 0.0 0.0 0.0 0.0 0.0" Properties=species:S:1:pos:R:3:Z:I:1 pbc="F F F"
C      -0.76193529       0.26970191       1.03552879        6 
C       0.65495201       0.86493727       0.67968711        6 
C      -0.94648154      -1.18128536       0.63740774        6 
C       1.55503765      -0.04215766      -0.13052600        6 
O      -1.96752334      -1.37807807      -0.21351938        8 
O      -0.27219981      -2.07715003       1.08923524        8 
O       2.76327843      -0.17205079       0.45515965        8 
O       1.26803224      -0.56320747      -1.18156245        8 
C       3.69931304      -1.03135192      -0.22300343        6 
C      -2.16494277      -2.73422583      -0.65685730        6 
C      -1.74942199       1.34281800       0.44998245        6 
C      -1.61955981       1.32937552      -1.06391923        6 
C      -0.42028000       1.83063279      -1.37261523        6 
C       0.27095600       2.19871272      -0.07125826        6 
C      -0.94998755       2.62671466       0.77677429        6 
H       3.30338112      -2.04632874      -0.27977568        1 
H      -2.35677895      -3.39124913       0.19259370        1 
H       0.04578817       1.85717984      -2.34740246        1 
H       4.60457998      -1.00535836       0.37931413        1 
H       3.89566624      -0.66375652      -1.23133541        1 
H      -3.02751562      -2.69915060      -1.31874914        1 
H      -1.28124315      -3.08225512      -1.19311333        1 
H       1.10335176       2.89803979      -0.14322427        1 
H      -2.75930179       1.26180805       0.84906593        1 
H      -1.42882225       3.52767247       0.39059350        1 
H      -0.72556801       2.75120821       1.84067238        1 
H      -2.32968168       0.86968136      -1.73542503        1 
H      -0.84938758       0.26051173       2.12553608        1 
H       1.18364099       1.11616429       1.59794213        1 
