29
Lattice="0.0 0.0 0.0 0.0 0.0 0.0 0.0 0.0 0.0" Properties=species:S:1:pos:R:3:Z:I:1 pbc="F F F"
C      -0.75214456       0.39958229       0.77359875        6 
C       0.80839155       0.27524849       0.73449810        6 
C      -1.65473830      -0.51071101      -0.03738486        6 
C       1.49455329      -0.92991995       0.12536935        6 
O      -2.72861452      -0.85989784       0.72492842        8 
O      -1.52260681      -0.86377270      -1.17740290        8 
O       2.80879426      -0.89683644       0.48388995        8 
O       1.03707920      -1.78857347      -0.57900712        8 
C       3.62821105      -1.95048507      -0.05125867        6 
C      -3.71682160      -1.67489850       0.07147504        6 
C      -0.95861292       1.89317510       0.24063802        6 
C      -0.55800513       1.89005664      -1.22604946        6 
C       0.76990632       1.74704584      -1.28243098        6 
C       1.28013070       1.66233335       0.14150289        6 
C       0.27222614       2.58744799       0.85888769        6 
H       3.27697418      -2.92355880       0.29638818        1 
H      -3.26995628      -2.60310529      -0.28809571        1 
H       1.37013060       1.58546406      -2.16782881        1 
H       4.63265979      -1.75282825       0.31724028        1 
H       3.60931032      -1.93501439      -1.14231078        1 
H      -4.47177964      -1.87961889       0.82782373        1 
H      -4.15711881      -1.14143382      -0.77335668        1 
H       2.34060157       1.84522317       0.29983530        1 
H      -1.94302682       2.29325749       0.47925314        1 
H       0.36260450       3.62723648       0.54111050        1 
H       0.31459642       2.52502258       1.95007567        1 
H      -1.25079587       1.86482286      -2.05516865        1 
H      -1.08804203       0.34712654       1.80807563        1 
H       1.14355965       0.26710145       1.77598282        1 
