29
Lattice="0.0 0.0 0.0 0.0 0.0 0.0 0.0 0.0 0.0" Properties=species:S:1:pos:R:3:Z:I:1 pbc="F F F"
C      -0.75791091       0.46196433       0.78824925        6 
C       0.79832933       0.33170561       0.77792972        6 
C      -1.58825619      -0.47970856      -0.06159714        6 
C       1.42196948      -0.97326409       0.33437994        6 
O      -2.74678294      -0.77024233       0.58507964        8 
O      -1.33130102      -0.88760943      -1.16343510        8 
O       2.76125948      -0.81805023       0.18866930        8 
O       0.85722903      -2.01921025       0.14699576        8 
C       3.48748615      -1.99555937      -0.20892057        6 
C      -3.66444763      -1.61421394      -0.13275638        6 
C      -0.94064410       1.94356457       0.21224859        6 
C      -0.53478180       1.89447314      -1.25360562        6 
C       0.78949512       1.72070746      -1.30093480        6 
C       1.29663045       1.67222373       0.12676543        6 
C       0.30080251       2.64059333       0.80885282        6 
H       3.38902815      -2.77919136       0.54430721        1 
H      -3.20070640      -2.57649856      -0.35485850        1 
H       1.39060146       1.52412610      -2.17849615        1 
H       4.52457925      -1.67971037      -0.29918390        1 
H       3.11403920      -2.36940774      -1.16351733        1 
H      -4.51962524      -1.74238599       0.52755926        1 
H      -3.96939523      -1.14064175      -1.06771326        1 
H       2.35897991       1.84837136       0.27660216        1 
H      -1.91945236       2.36478406       0.43608130        1 
H       0.40657786       3.66742303       0.45584109        1 
H       0.33965350       2.61568394       1.90191843        1 
H      -1.22557226       1.85917762      -2.08438709        1 
H      -1.13938408       0.42045399       1.80694009        1 
H       1.10948586       0.38899572       1.82979714        1 
