29
Lattice="0.0 0.0 0.0 0.0 0.0 0.0 0.0 0.0 0.0" Properties=species:S:1:pos:R:3:Z:I:1 pbc="F F F"
C      -0.81850927       0.39623482       0.68573720        6 
C       0.72237489       0.26151778       0.86879806        6 
C      -1.67410563      -0.80745909       0.35062596        6 
C       1.49075502      -0.75481303       0.03799883        6 
O      -2.92853308      -0.39026715       0.03029019        8 
O      -1.35768258      -1.96585302       0.38260408        8 
O       2.80904823      -0.67162265       0.37255922        8 
O       1.07563997      -1.52962075      -0.77899637        8 
C       3.68583781      -1.57002055      -0.32844579        6 
C      -3.88004440      -1.43119194      -0.25381398        6 
C      -1.00661078       1.74130264      -0.09751886        6 
C      -0.26333569       1.64449166      -1.41882027        6 
C       1.04687102       1.65763214      -1.15026986        6 
C       1.20030930       1.70903474       0.36517935        6 
C      -0.00806369       2.59963051       0.71735290        6 
H       3.42324345      -2.60700301      -0.11198644        1 
H      -4.00756004      -2.08224429       0.61289052        1 
H       1.85936205       1.50731792      -1.84895503        1 
H       4.68590834      -1.34466571       0.03617637        1 
H       3.62340249      -1.40584693      -1.40566097        1 
H      -4.81102959      -0.91786774      -0.48571969        1 
H      -3.54945194      -2.03021878      -1.10375663        1 
H       2.17828169       1.98953214       0.74760081        1 
H      -2.04251646       2.06754748      -0.14145416        1 
H       0.10064404       3.60987817       0.31970065        1 
H      -0.23812969       2.64519403       1.78553755        1 
H      -0.73326745       1.49072098      -2.38110800        1 
H      -1.19590922       0.62567400       1.69307607        1 
H       0.99122311       0.11440270       1.91484284        1 
