29
Lattice="0.0 0.0 0.0 0.0 0.0 0.0 0.0 0.0 0.0" Properties=species:S:1:pos:R:3:Z:I:1 pbc="F F F"
C      -0.90645054      -0.15761927      -0.98658113        6 
C       0.48929081      -0.82437970      -0.68246764        6 
C      -1.25352061       1.28838060      -0.69128333        6 
C       1.61202991      -0.09465762       0.02862582        6 
O      -0.83285998       1.72684274       0.49754092        8 
O      -1.93815272       1.94768691      -1.44372349        8 
O       2.77215521      -0.29544364      -0.65504757        8 
O       1.56513968       0.53682537       1.05151122        8 
C       3.95123451       0.28224196      -0.06811597        6 
C      -1.18761917       3.07457589       0.84951062        6 
C      -1.92118379      -1.14889325      -0.26950252        6 
C      -1.67563931      -1.05837410       1.22517615        6 
C      -0.49391992      -1.63135065       1.47643292        6 
C       0.06852924      -2.11305170       0.15053919        6 
C      -1.23190233      -2.49212464      -0.58803471        6 
H       3.85042568       1.36658793       0.00273423        1 
H      -2.27117061       3.17447081       0.93661604        1 
H       0.04363202      -1.63356008       2.41387169        1 
H       4.76817320       0.01681216      -0.73568263        1 
H       4.12222942      -0.12512046       0.92982143        1 
H      -0.70409590       3.25495201       1.80667066        1 
H      -0.82425955       3.77396893       0.09513274        1 
H       0.85968977      -2.86085383       0.19646301        1 
H      -2.94559364      -1.01166450      -0.61269784        1 
H      -1.74066560      -3.34078847      -0.12803183        1 
H      -1.09598028      -2.67543142      -1.65771892        1 
H      -2.29312463      -0.50635096       1.92007659        1 
H      -1.07682237      -0.24373983      -2.06035040        1 
H       0.90265125      -1.16271851      -1.63202373        1 
