29
Lattice="0.0 0.0 0.0 0.0 0.0 0.0 0.0 0.0 0.0" Properties=species:S:1:pos:R:3:Z:I:1 pbc="F F F"
C      -0.81025612       0.46080829       0.73682112        6 
C       0.72851316       0.27899109       0.90790351        6 
C      -1.68285250      -0.74367319       0.45666596        6 
C       1.42369534      -0.79131976       0.07652114        6 
O      -2.82283400      -0.36798438      -0.17527682        8 
O      -1.44670554      -1.87876439       0.77523613        8 
O       2.76921027      -0.65774180       0.23286787        8 
O       0.93196756      -1.66195736      -0.58853796        8 
C       3.57607538      -1.61609663      -0.47296939        6 
C      -3.76368824      -1.42347683      -0.44535728        6 
C      -0.96030239       1.78024000      -0.08854288        6 
C      -0.22575225       1.61797924      -1.40887385        6 
C       1.08569944       1.60259793      -1.14565052        6 
C       1.24689813       1.69580171       0.36838451        6 
C       0.06779003       2.63423725       0.69484987        6 
H       3.32477256      -2.63163308      -0.16310569        1 
H      -4.11406113      -1.87182929       0.48596212        1 
H       1.89168345       1.41292285      -1.84217227        1 
H       4.60526717      -1.37831766      -0.21229508        1 
H       3.42327043      -1.52574908      -1.55019353        1 
H      -4.58747489      -0.94917859      -0.97482077        1 
H      -3.30205106      -2.19560051      -1.06228265        1 
H       2.23443182       1.95935902       0.73732912        1 
H      -1.98492523       2.13959070      -0.14240237        1 
H       0.20582881       3.62758359       0.26504120        1 
H      -0.15658613       2.72131298       1.76184972        1 
H      -0.70557791       1.45120400      -2.36400930        1 
H      -1.16951687       0.72837791       1.74191984        1 
H       1.00750086       0.12849563       1.95116567        1 
