29
Lattice="0.0 0.0 0.0 0.0 0.0 0.0 0.0 0.0 0.0" Properties=species:S:1:pos:R:3:Z:I:1 pbc="F F F"
C       0.64459542       0.96237495       0.72961445        6 
C       0.65404433      -0.58689490       1.00121765        6 
C      -0.57666885       1.76743229       0.33279316        6 
C      -0.49000789      -1.52841145       0.66872022        6 
O      -1.66692882       1.04609722       0.03689725        8 
O      -0.57400753       2.97738364       0.36537114        8 
O      -0.92613828      -1.45873350      -0.59864565        8 
O      -0.86427633      -2.38129001       1.44338105        8 
C      -1.94656987      -2.39720701      -0.97152465        6 
C      -2.85564761       1.79018299      -0.28808185        6 
C       1.89777529       1.18854555      -0.20104868        6 
C       1.63695481       0.48006936      -1.51518033        6 
C       1.68696477      -0.83491637      -1.28010984        6 
C       1.96405558      -1.02883440       0.20277474        6 
C       2.87359168       0.19228919       0.46431125        6 
H      -1.58562599      -3.42214108      -0.86884356        1 
H      -2.67306210       2.44874332      -1.13807106        1 
H       1.45474717      -1.63016052      -1.97402136        1 
H      -2.17670599      -2.17463822      -2.01159641        1 
H      -2.83206557      -2.26794194      -0.34675275        1 
H      -3.60391168       1.04041364      -0.53594731        1 
H      -3.17737067       2.38768426       0.56629641        1 
H       2.33043529      -2.00873324       0.50580774        1 
H       2.19125050       2.23470472      -0.25438404        1 
H       3.82295120       0.11942553      -0.06803862        1 
H       3.05510070       0.39151197       1.52425583        1 
H       1.35619093       0.97072580      -2.43783236        1 
H       0.90521235       1.43062903       1.68386927        1 
H       0.82674616      -0.75031231       2.06402634        1 
