29
Lattice="0.0 0.0 0.0 0.0 0.0 0.0 0.0 0.0 0.0" Properties=species:S:1:pos:R:3:Z:I:1 pbc="F F F"
C      -0.53484538       0.70922444      -1.02467492        6 
C      -0.88367818      -0.82082975      -0.80224334        6 
C       0.90259766       1.08575408      -0.71203329        6 
C       0.27510618      -1.72202835      -0.43275015        6 
O       1.02529180       1.95649897       0.30760186        8 
O       1.84434950       0.69044814      -1.35739382        8 
O       0.72134349      -1.51850640       0.82500913        8 
O       0.78102325      -2.50904589      -1.19398518        8 
C       1.89062174      -2.26854979       1.20259032        6 
C       2.36958292       2.35228780       0.63625716        6 
C      -1.67639536       1.42838161      -0.21474693        6 
C      -1.45357951       1.15863348       1.26667167        6 
C      -1.70921119      -0.13436907       1.48408759        6 
C      -2.12412155      -0.75141928       0.15784992        6 
C      -2.84990705       0.45673760      -0.48774629        6 
H       1.69278258      -3.34006239       1.14805085        1 
H       2.83623778       2.86039586      -0.20905770        1 
H      -1.55019734      -0.68928851       2.39773431        1 
H       2.10713041      -1.97025719       2.22622946        1 
H       2.72296137      -2.02252170       0.54160744        1 
H       2.27372622       3.02589154       1.48487684        1 
H       2.96718350       1.47941076       0.90281316        1 
H      -2.66985556      -1.69314346       0.20879270        1 
H      -1.81271172       2.47064628      -0.49961290        1 
H      -3.75707944       0.73554367       0.04974647        1 
H      -3.07614848       0.31773475      -1.54953066        1 
H      -1.04431325       1.87356136       1.96455975        1 
H      -0.64562509       0.92182545      -2.09042020        1 
H      -1.22363413      -1.22353989      -1.75694784        1 
