29
Lattice="0.0 0.0 0.0 0.0 0.0 0.0 0.0 0.0 0.0" Properties=species:S:1:pos:R:3:Z:I:1 pbc="F F F"
C      -0.86269295       0.65613745       0.92443325        6 
C       0.70431834       0.52356413       0.89627720        6 
C      -1.69152151      -0.57332990       0.59962440        6 
C       1.28420901      -0.76874603       0.35891652        6 
O      -1.82778492      -0.79090215      -0.72091502        8 
O      -2.23013232      -1.24715369       1.44509480        8 
O       2.60466129      -0.62009974       0.10864967        8 
O       0.69809077      -1.80933528       0.19450029        8 
C       3.28915429      -1.78773516      -0.38215998        6 
C      -2.49819640      -2.00849025      -1.08758530        6 
C      -1.09966819       1.92763194       0.02412282        6 
C      -0.60989226       1.62880178      -1.38406130        6 
C       0.72509782       1.56892552      -1.34858977        6 
C       1.15134165       1.80548053       0.09063797        6 
C       0.06453399       2.80835545       0.53703042        6 
H       3.25761422      -2.58902760       0.35796846        1 
H      -3.51548712      -2.02340281      -0.69328615        1 
H       1.39076583       1.27672326      -2.14981438        1 
H       4.31437267      -1.46953601      -0.55787589        1 
H       2.83055026      -2.13751552      -1.30830987        1 
H      -2.50783891      -2.01845733      -2.17569885        1 
H      -1.94362684      -2.86393517      -0.69962868        1 
H       2.19183420       2.07453577       0.25500030        1 
H      -2.10903523       2.32844037       0.10883295        1 
H       0.13627692       3.75989806       0.00777423        1 
H       0.03986425       2.98527247       1.61625665        1 
H      -1.25324848       1.39870325      -2.22050532        1 
H      -1.15637557       0.90369804       1.94489742        1 
H       1.08136224       0.60170189       1.92125696        1 
