29
Lattice="0.0 0.0 0.0 0.0 0.0 0.0 0.0 0.0 0.0" Properties=species:S:1:pos:R:3:Z:I:1 pbc="F F F"
C       0.62580991       0.96264688       0.70626238        6 
C       0.65139294      -0.58173787       0.99270030        6 
C      -0.60449075       1.69970541       0.22013755        6 
C      -0.50018048      -1.49170406       0.61232195        6 
O      -1.73116245       0.96800381       0.25321826        8 
O      -0.59450678       2.88356421      -0.02664297        8 
O      -0.83644547      -1.43686503      -0.68878879        8 
O      -0.98999765      -2.28448879       1.38403639        8 
C      -1.91176831      -2.29430992      -1.10019493        6 
C      -2.95039695       1.65591115      -0.08153755        6 
C       1.92855133       1.21550103      -0.13463011        6 
C       1.75680399       0.51268047      -1.46774399        6 
C       1.80508845      -0.80326344      -1.23730668        6 
C       1.99962581      -1.00512923       0.25813490        6 
C       2.87784684       0.22617672       0.57919567        6 
H      -1.66318562      -3.34141919      -0.92004605        1 
H      -2.88524609       2.07845762      -1.08486053        1 
H       1.62116105      -1.59711519      -1.94714381        1 
H      -2.04006079      -2.10796789      -2.16464437        1 
H      -2.82455554      -2.04607658      -0.55557384        1 
H      -3.73063190       0.89954239      -0.03194118        1 
H      -3.14533217       2.45615222       0.63398549        1 
H       2.36336848      -1.98252409       0.57272759        1 
H       2.21177791       2.26489127      -0.16633936        1 
H       3.85751036       0.17013666       0.10286714        1 
H       2.99546933       0.41813157       1.64969887        1 
H       1.52598806       1.00784317      -2.40163757        1 
H       0.79233314       1.45070053       1.67429757        1 
H       0.77646841      -0.74145531       2.06261756        1 
