29
Lattice="0.0 0.0 0.0 0.0 0.0 0.0 0.0 0.0 0.0" Properties=species:S:1:pos:R:3:Z:I:1 pbc="F F F"
C       0.72668969      -0.86544642      -0.79216824        6 
C       0.60838647       0.69728418      -0.96708240        6 
C      -0.39207898      -1.68264043      -0.17885182        6 
C      -0.69893377       1.38914254      -0.63643705        6 
O      -1.59427787      -1.08675122      -0.26228621        8 
O      -0.23667633      -2.80541580       0.24011540        8 
O      -0.90490607       1.54698574       0.68635994        8 
O      -1.45838327       1.81051639      -1.47629747        8 
C      -2.15446177       2.15162314       1.05556842        6 
C      -2.72265484      -1.84352037       0.21295772        6 
C       2.08764770      -1.03779211      -0.02670120        6 
C       1.85582843      -0.51103234       1.38014099        6 
C       1.72302390       0.81639339       1.29164120        6 
C       1.87689553       1.20233196      -0.17328167        6 
C       2.89467899       0.13056712      -0.63292118        6 
H      -2.23732359       3.15514346       0.63555818        1 
H      -2.62989193      -2.02815705       1.28428819        1 
H       1.44549400       1.50121250       2.07950411        1 
H      -2.14993434       2.18903743       2.14297113        1 
H      -2.98688331       1.54454636       0.69519010        1 
H      -3.59293263      -1.22594287       0.00223532        1 
H      -2.79086694      -2.79695439      -0.31228075        1 
H       2.11637558       2.24553743      -0.37623368        1 
H       2.49720891      -2.04161360      -0.11060514        1 
H       3.87153531       0.24984831      -0.16242002        1 
H       3.01086308       0.07198302      -1.71939037        1 
H       1.70458093      -1.13377597       2.25136293        1 
H       0.83313835      -1.30055253      -1.79283779        1 
H       0.75653744       0.92280413      -2.02345713        1 
