29
Lattice="0.0 0.0 0.0 0.0 0.0 0.0 0.0 0.0 0.0" Properties=species:S:1:pos:R:3:Z:I:1 pbc="F F F"
C      -1.11017123      -0.07257710      -0.91926723        6 
C       0.21907097      -0.90579217      -0.88545200        6 
C      -1.14749939       1.35373892      -0.41096398        6 
C       1.50595958      -0.13559459      -0.68478471        6 
O      -0.24899599       1.60926492       0.55498890        8 
O      -1.98245966       2.15172722      -0.76968033        8 
O       2.33231146      -0.74239496       0.19228259        8 
O       1.78921984       0.87873255      -1.27380476        8 
C       3.59902837      -0.09389069       0.41126254        6 
C      -0.25777180       2.94263733       1.09256195        6 
C      -2.06933444      -0.98134308      -0.02890278        6 
C      -1.55513938      -0.90258190       1.40188458        6 
C      -0.39354923      -1.56258090       1.44952744        6 
C      -0.11834309      -2.10982464       0.05885330        6 
C      -1.56374284      -2.38607145      -0.42164558        6 
H       4.16077717      -0.02633024      -0.52152145        1 
H      -1.23249623       3.17524678       1.52392207        1 
H       0.29959708      -1.61540816       2.27735312        1 
H       4.12372967      -0.71792787       1.13140061        1 
H       3.44621324       0.90971735       0.81071504        1 
H       0.51452371       2.95117894       1.85860815        1 
H      -0.02800824       3.66508651       0.30833943        1 
H       0.59928084      -2.92500003      -0.00776803        1 
H      -3.12203202      -0.75291648      -0.18458675        1 
H      -2.05376543      -3.17803629       0.14672873        1 
H      -1.63997043      -2.59797049      -1.49249011        1 
H      -2.00209661      -0.30519695       2.18522381        1 
H      -1.50892263      -0.02908579      -1.93213337        1 
H       0.34287369      -1.31830004      -1.89453190        1 
