29
Lattice="0.0 0.0 0.0 0.0 0.0 0.0 0.0 0.0 0.0" Properties=species:S:1:pos:R:3:Z:I:1 pbc="F F F"
C      -0.77727044       0.58856127       0.79356192        6 
C       0.77277827       0.43569080       0.96963158        6 
C      -1.47373556      -0.47630656      -0.02224099        6 
C       1.33642380      -0.92569479       0.62095966        6 
O      -2.74516620      -0.64094174       0.40879843        8 
O      -1.01188457      -1.06902540      -0.96544837        8 
O       2.40370100      -0.85064447      -0.19667261        8 
O       0.89667746      -1.96252348       1.05506854        8 
C       2.96567974      -2.11193351      -0.60756559        6 
C      -3.53844832      -1.59287375      -0.32409468        6 
C      -0.87554914       1.99410070       0.05524096        6 
C      -0.29858560       1.80839373      -1.33909346        6 
C       1.01995102       1.63247976      -1.20992897        6 
C       1.35167001       1.71197012       0.26944832        6 
C       0.29306779       2.74186693       0.73454858        6 
H       3.32391709      -2.67187994       0.25759691        1 
H      -3.08993383      -2.58556848      -0.26431830        1 
H       1.72255085       1.35459652      -1.98251001        1 
H       3.79047856      -1.85920130      -1.27025866        1 
H       2.21329898      -2.70111759      -1.13330928        1 
H      -4.51602593      -1.58392551       0.15301474        1 
H      -3.61935998      -1.29810450      -1.37177783        1 
H       2.39179663       1.90826137       0.52182504        1 
H      -1.86932454       2.43485519       0.11951871        1 
H       0.45365492       3.73288674       0.30761819        1 
H       0.19540634       2.81554309       1.82176186        1 
H      -0.88620280       1.69543338      -2.24012446        1 
H      -1.27494108       0.65660948       1.75965650        1 
H       0.97559824       0.52472877       2.04297770        1 
