29
Lattice="0.0 0.0 0.0 0.0 0.0 0.0 0.0 0.0 0.0" Properties=species:S:1:pos:R:3:Z:I:1 pbc="F F F"
C       0.17262505       0.77095078       0.83152330        6 
C       0.89293346      -0.62408716       0.80540775        6 
C      -1.09549686       0.90721701       0.02451148        6 
C       0.19623034      -1.75240522       0.07166253        6 
O      -1.82952983       1.94880835       0.48138806        8 
O      -1.42420293       0.23642771      -0.92277350        8 
O      -0.92073594      -2.12271542       0.73574099        8 
O       0.58946223      -2.29448255      -0.93000683        8 
C      -1.74162874      -3.10450613       0.07798021        6 
C      -3.04543332       2.22441943      -0.23846796        6 
C       1.30835385       1.73965085       0.28578634        6 
C       1.53843704       1.38000055      -1.17199330        6 
C       2.12544250       0.17940629      -1.20235722        6 
C       2.30993569      -0.27968525       0.23490489        6 
C       2.54753516       1.08106856       0.93141016        6 
H      -2.08171452      -2.71695365      -0.88351483        1 
H      -3.71702374       1.36560708      -0.19367419        1 
H       2.32316613      -0.43395015      -2.06878710        1 
H      -2.58493677      -3.27311838       0.74452646        1 
H      -1.18470869      -4.02966981      -0.07787802        1 
H      -3.48929688       3.08360887       0.25959869        1 
H      -2.82849043       2.45413889      -1.28286164        1 
H       3.04328037      -1.06737853       0.39822487        1 
H       1.11068783       2.78642619       0.51036303        1 
H       3.47852994       1.55433161       0.61661512        1 
H       2.50259157       1.03470972       2.02379654        1 
H       1.15790314       1.94155767      -2.01484170        1 
H      -0.06219243       1.05421381       1.85808055        1 
H       0.99208798      -0.95958158       1.84152421        1 
