29
Lattice="0.0 0.0 0.0 0.0 0.0 0.0 0.0 0.0 0.0" Properties=species:S:1:pos:R:3:Z:I:1 pbc="F F F"
C      -0.76176307       0.68191023      -0.86654535        6 
C      -0.34465496      -0.83489843      -0.73057501        6 
C       0.10565078       1.67045480      -0.11330286        6 
C       0.88291430      -1.11749314       0.10411157        6 
O       1.31809605       1.76141886      -0.70944938        8 
O      -0.19345504       2.28300214       0.87875894        8 
O       1.75778001      -1.88874628      -0.58219398        8 
O       1.07086127      -0.75948253       1.24127437        8 
C       2.95477209      -2.26167728       0.12413519        6 
C       2.29652704       2.56485485      -0.02439787        6 
C      -2.26408954       0.66374383      -0.40405082        6 
C      -2.28511395       0.33549020       1.08145176        6 
C      -1.92728671      -0.94475393       1.21673220        6 
C      -1.66564408      -1.49717183      -0.17395841        6 
C      -2.70452475      -0.69593665      -0.99337293        6 
H       3.51655623      -1.37324174       0.41666620        1 
H       2.46171621       2.17406936       0.98060948        1 
H      -1.72342322      -1.47185303       2.13810798        1 
H       3.52878328      -2.86494679      -0.57578847        1 
H       2.70830748      -2.83877276       1.01687595        1 
H       3.20244700       2.49005051      -0.62221609        1 
H       1.96395722       3.60195888       0.03955376        1 
H      -1.66944904      -2.58160475      -0.28140688        1 
H      -2.81835182       1.54934116      -0.71150550        1 
H      -3.73118031      -0.95499596      -0.73059561        1 
H      -2.56771567      -0.77704657      -2.07655266        1 
H      -2.43339600       1.06129435       1.86648199        1 
H      -0.69782136       0.95101048      -1.92357222        1 
H      -0.15289895      -1.23670470      -1.72519609        1 
