29
Lattice="0.0 0.0 0.0 0.0 0.0 0.0 0.0 0.0 0.0" Properties=species:S:1:pos:R:3:Z:I:1 pbc="F F F"
C       0.40120561       0.88507726       0.71502493        6 
C       0.74720291      -0.64851252       0.88906003        6 
C      -0.81866313       1.18249206      -0.12849842        6 
C      -0.14864166      -1.62093813       0.14982356        6 
O      -1.80365402       1.72068986       0.62444490        8 
O      -0.92392835       0.99937944      -1.31735990        8 
O      -1.42260509      -1.51162273       0.59292618        8 
O       0.19235992      -2.40171355      -0.70175704        8 
C      -2.39977429      -2.32451449      -0.08323155        6 
C      -3.03260800       2.00878840      -0.06563704        6 
C       1.74843972       1.46219993       0.14397260        6 
C       1.99253342       0.85101633      -1.22606383        6 
C       2.30007988      -0.43659015      -1.04548506        6 
C       2.25217665      -0.71369469       0.44853036        6 
C       2.74988498       0.64423471       0.99397308        6 
H      -2.45430596      -2.04524323      -1.13666605        1 
H      -3.45752683       1.09269679      -0.47977394        1 
H       2.42748708      -1.19383718      -1.80464660        1 
H      -3.34324106      -2.12011925       0.41859763        1 
H      -2.14274115      -3.38140741      -0.00182600        1 
H      -3.69559728       2.43230715       0.68559720        1 
H      -2.86198158       2.72069813      -0.87451862        1 
H       2.75962739      -1.61421648       0.79048813        1 
H       1.80299920       2.54868674       0.20877586        1 
H       3.78725108       0.84640732       0.72461150        1 
H       2.61430533       0.76627957       2.07319589        1 
H       1.81974267       1.35696392      -2.16492973        1 
H       0.22032363       1.31441892       1.69999894        1 
H       0.65179411      -0.89639605       1.95005433        1 
