29
Lattice="0.0 0.0 0.0 0.0 0.0 0.0 0.0 0.0 0.0" Properties=species:S:1:pos:R:3:Z:I:1 pbc="F F F"
C      -0.36390521       0.93374532       0.66115041        6 
C       0.88445319       0.03913258       1.02496481        6 
C      -1.54919474       0.34352152      -0.07328269        6 
C       0.91560214      -1.44809688       0.73056983        6 
O      -2.69272262       0.64365571       0.59773811        8 
O      -1.54553467      -0.27303326      -1.10768859        8 
O       0.75637383      -1.74855240      -0.56295552        8 
O       1.15135667      -2.27686994       1.58288587        8 
C       0.77840978      -3.14254586      -0.91104539        6 
C      -3.91507164       0.18712920      -0.00784690        6 
C       0.29630351       2.12029511      -0.15669646        6 
C       0.83287196       1.54673024      -1.45405841        6 
C       1.89361862       0.79191265      -1.15281865        6 
C       2.07790632       0.83997361       0.35245358        6 
C       1.60847043       2.28267889       0.64139056        6 
H       1.75167536      -3.58020680      -0.68224038        1 
H      -3.91383436      -0.90034169      -0.09828337        1 
H       2.44499180       0.14810167      -1.82295722        1 
H       0.58098629      -3.17257036      -1.98019740        1 
H       0.00420157      -3.68302483      -0.36451880        1 
H      -4.70942514       0.51437802       0.65956611        1 
H      -4.04002077       0.62744850      -0.99862657        1 
H       3.05118306       0.53918026       0.73809039        1 
H      -0.35643755       2.98891198      -0.23731798        1 
H       2.27000423       3.03028960       0.20173926        1 
H       1.45741499       2.49533181       1.70364111        1 
H       0.34796084       1.63540735      -2.41586243        1 
H      -0.75686608       1.34263607       1.59139987        1 
H       1.01527973       0.08866163       2.10580856        1 
