29
Lattice="0.0 0.0 0.0 0.0 0.0 0.0 0.0 0.0 0.0" Properties=species:S:1:pos:R:3:Z:I:1 pbc="F F F"
C      -0.67360557       0.51695905       0.94761696        6 
C       0.88709223       0.72485788       0.87584224        6 
C      -1.20668546      -0.81383386       0.45155439        6 
C       1.73919837      -0.48570294       0.54596031        6 
O      -2.46983580      -0.68781099      -0.01227228        8 
O      -0.63475654      -1.87365205       0.51669088        8 
O       1.77201420      -0.76355828      -0.77164476        8 
O       2.34158084      -1.12015221       1.37734465        8 
C       2.43852504      -1.98490944      -1.13674833        6 
C      -3.10473198      -1.90163240      -0.45520550        6 
C      -1.22181664       1.76832921       0.15943577        6 
C      -0.88106410       1.52727697      -1.30344600        6 
C       0.44501250       1.63894848      -1.42833598        6 
C       1.01132002       1.98319618      -0.06069565        6 
C      -0.15341463       2.82348769       0.51674861        6 
H       3.48100289      -1.96664754      -0.81586816        1 
H      -3.15772884      -2.62601085       0.35895519        1 
H       1.04138103       1.42612112      -2.30356316        1 
H       2.37118553      -2.03918123      -2.22160433        1 
H       1.92913441      -2.83240422      -0.67594777        1 
H      -4.10279908      -1.60680186      -0.77219382        1 
H      -2.55090092      -2.33806616      -1.28794247        1 
H       2.00680636       2.42533599      -0.04785115        1 
H      -2.26048326       1.99967706       0.38408786        1 
H      -0.30254315       3.76188852      -0.01982756        1 
H      -0.06406247       3.01927096       1.58945990        1 
H      -1.58840812       1.20143974      -2.05362164        1 
H      -0.98687435       0.57261338       1.99548519        1 
H       1.22598650       1.01428825       1.87119560        1 
