29
Lattice="0.0 0.0 0.0 0.0 0.0 0.0 0.0 0.0 0.0" Properties=species:S:1:pos:R:3:Z:I:1 pbc="F F F"
C      -0.81079134       0.00843904      -1.07663264        6 
C       0.25192940      -1.07003898      -0.61720574        6 
C      -0.45527561       1.44486665      -0.73549325        6 
C       1.42828673      -0.53368429       0.16846068        6 
O      -1.00566059       1.88990571       0.40258725        8 
O       0.22505742       2.13599591      -1.45992607        8 
O       2.59102853      -0.83621509      -0.44971063        8 
O       1.37436572       0.06801665       1.21424535        8 
C       3.78817521      -0.36395330       0.19592918        6 
C      -0.63072670       3.21673557       0.81288072        6 
C      -2.15164870      -0.58260946      -0.49765906        6 
C      -2.08570883      -0.55495543       1.02192012        6 
C      -1.18487278      -1.46268454       1.40757868        6 
C      -0.63708776      -2.12057356       0.15332814        6 
C      -1.89336368      -2.08766070      -0.74917141        6 
H       3.77159024       0.72415651       0.27228576        1 
H      -0.91217670       3.94735233       0.05317326        1 
H      -0.80551943      -1.62530713       2.40621569        1 
H       4.60784840      -0.69157738      -0.43940320        1 
H       3.87865249      -0.79383554       1.19482256        1 
H      -1.17121040       3.39489805       1.73988367        1 
H       0.44552729       3.26299170       0.98285187        1 
H      -0.13703685      -3.08014691       0.28179324        1 
H      -3.03990971      -0.14415161      -0.95151058        1 
H      -2.69673044      -2.71942331      -0.36797715        1 
H      -1.69240737      -2.33507174      -1.79627708        1 
H      -2.59383891       0.16599162       1.64413545        1 
H      -0.84854673      -0.00919396      -2.16662271        1 
H       0.65949666      -1.54853700      -1.50742703        1 
