29
Lattice="0.0 0.0 0.0 0.0 0.0 0.0 0.0 0.0 0.0" Properties=species:S:1:pos:R:3:Z:I:1 pbc="F F F"
C      -0.76236494       0.52196412       0.84081826        6 
C       0.79927717       0.57426253       0.99163176        6 
C      -1.34179518      -0.66781275       0.11185303        6 
C       1.53178309      -0.72055343       0.69469062        6 
O      -2.68354592      -0.70062484       0.28095380        8 
O      -0.74158346      -1.47220355      -0.55671521        8 
O       2.20203625      -0.70002385      -0.47002144        8 
O       1.54900760      -1.65298072       1.46275958        8 
C       2.79678251      -1.94772347      -0.86933166        6 
C      -3.37902719      -1.76835144      -0.38969699        6 
C      -1.06535183       1.86688591       0.05242658        6 
C      -0.52344616       1.67426509      -1.35372174        6 
C       0.81056772       1.66155783      -1.27116201        6 
C       1.18601160       1.86545218       0.18812353        6 
C       0.02614900       2.78557234       0.64277041        6 
H       3.50927263      -2.29417034      -0.11942443        1 
H      -3.02864642      -2.73626885      -0.02808179        1 
H       1.51355955       1.43338876      -2.05859754        1 
H       3.29940659      -1.74151794      -1.81203387        1 
H       2.01501891      -2.69639821      -1.00505805        1 
H      -4.42997371      -1.62632727      -0.14766865        1 
H      -3.22152016      -1.70979254      -1.46786737        1 
H       2.20263241       2.20419792       0.38106340        1 
H      -2.10331779       2.18203199       0.14060929        1 
H       0.04871248       3.76342474       0.15911371        1 
H      -0.03990525       2.90882142       1.72788657        1 
H      -1.12692193       1.45115811      -2.22396930        1 
H      -1.24254777       0.57071432       1.81913703        1 
H       1.00849675       0.75473186       2.04855937        1 
