29
Lattice="0.0 0.0 0.0 0.0 0.0 0.0 0.0 0.0 0.0" Properties=species:S:1:pos:R:3:Z:I:1 pbc="F F F"
C      -0.70190455       0.63065592      -0.90666576        6 
C      -0.44523268      -0.91798796      -0.69323930        6 
C       0.18910664       1.60992790      -0.16198218        6 
C       0.78197736      -1.30056568       0.10546505        6 
O       1.49550642       1.36163433      -0.39171382        8 
O      -0.19764053       2.52373172       0.52376739        8 
O       1.82203727      -1.55056417      -0.71825993        8 
O       0.83843394      -1.44050396       1.30361410        8 
C       3.06823259      -1.87081841      -0.07941604        6 
C       2.43215437       2.21388257       0.29346122        6 
C      -2.21408379       0.77513852      -0.49887450        6 
C      -2.28174469       0.56664448       1.00827526        6 
C      -2.02384377      -0.72318513       1.24610823        6 
C      -1.80863842      -1.40524288      -0.09715807        6 
C      -2.77121140      -0.58145895      -0.98643244        6 
H       3.38604701      -1.04889821       0.56461952        1 
H       2.33104795       2.09071793       1.37289453        1 
H      -1.87763984      -1.20011607       2.20409952        1 
H       3.78012483      -2.01899360      -0.88863496        1 
H       2.97284690      -2.77803821       0.51938505        1 
H       3.41534897       1.88900951      -0.04001099        1 
H       2.26264139       3.25902028       0.03165751        1 
H      -1.91432458      -2.48972631      -0.11252929        1 
H      -2.67751818       1.68176370      -0.88324535        1 
H      -3.81798637      -0.72348855      -0.71514718        1 
H      -2.63970094      -0.75759926      -2.05892359        1 
H      -2.38734741       1.36195287       1.73105227        1 
H      -0.56853236       0.85524848      -1.96943664        1 
H      -0.31096770      -1.36492996      -1.67969166        1 
