29
Lattice="0.0 0.0 0.0 0.0 0.0 0.0 0.0 0.0 0.0" Properties=species:S:1:pos:R:3:Z:I:1 pbc="F F F"
C       0.53018162       0.99958737       0.73228589        6 
C       0.71841703      -0.53970793       0.99977606        6 
C      -0.74561576       1.43756290       0.04831244        6 
C      -0.34726005      -1.51205810       0.54990001        6 
O      -1.82081695       1.08331772       0.78796295        8 
O      -0.82123287       2.06754949      -0.97676285        8 
O      -0.84036003      -1.22868097      -0.67181246        8 
O      -0.69091919      -2.47399241       1.19598161        8 
C      -1.84613144      -2.12299007      -1.17755591        6 
C      -3.10661057       1.39439753       0.22507572        6 
C       1.84059115       1.39646061      -0.02796157        6 
C       1.80823493       0.70872604      -1.38214184        6 
C       1.97962538      -0.60037749      -1.17303993        6 
C       2.12883479      -0.81299178       0.32306715        6 
C       2.85400297       0.49471447       0.71465902        6 
H      -1.44209150      -3.13059344      -1.28730460        1 
H      -3.22298514       0.90367618      -0.74291334        1 
H       1.89862303      -1.39351275      -1.90404948        1 
H      -2.13186360      -1.71763640      -2.14589890        1 
H      -2.70310136      -2.15363016      -0.50261069        1 
H      -3.83551441       1.01400405       0.93749363        1 
H      -3.22051399       2.47185149       0.09688655        1 
H       2.57023240      -1.75482256       0.64555975        1 
H       2.02496388       2.46904685      -0.03741447        1 
H       3.85747598       0.55558708       0.29076330        1 
H       2.89666703       0.66813839       1.79442776        1 
H       1.55694958       1.19911071      -2.31122391        1 
H       0.51563446       1.49569121       1.70784664        1 
H       0.81742132      -0.71521582       2.07035542        1 
