29
Lattice="0.0 0.0 0.0 0.0 0.0 0.0 0.0 0.0 0.0" Properties=species:S:1:pos:R:3:Z:I:1 pbc="F F F"
C       0.59387016       0.96906768       0.81525121        6 
C       0.56695115      -0.61037497       0.96655535        6 
C      -0.47686014       1.69625747       0.01367021        6 
C      -0.70830408      -1.37080404       0.66009834        6 
O      -1.71366084       1.25390020       0.28057140        8 
O      -0.24844435       2.61195117      -0.74208303        8 
O      -0.60855679      -2.11461482      -0.46519842        8 
O      -1.70015222      -1.34273956       1.34421555        8 
C      -1.77483438      -2.88156875      -0.81486082        6 
C      -2.79647040       1.90836100      -0.40458215        6 
C       2.01042154       1.20196177       0.16751758        6 
C       1.89624082       0.69945656      -1.26523984        6 
C       1.80403625      -0.63304208      -1.21468763        6 
C       1.88516694      -1.04769668       0.24601519        6 
C       2.82771750       0.05140772       0.79293102        6 
H      -2.02653077      -3.58112774      -0.01620103        1 
H      -2.67465573       1.81502282      -1.48497902        1 
H       1.60376372      -1.31076172      -2.03220850        1 
H      -1.50909602      -3.41622715      -1.72431730        1 
H      -2.62548757      -2.22140808      -0.99150877        1 
H      -3.69558396       1.39519335      -0.07129815        1 
H      -2.83403005       2.96578830      -0.13827306        1 
H       2.15459085      -2.08509311       0.43891922        1 
H       2.37780333       2.21764152       0.29368238        1 
H       3.83460321      -0.01397598       0.37803891        1 
H       2.87895365       0.08302422       1.88569038        1 
H       1.77864959       1.33762880      -2.12889297        1 
H       0.54952031       1.40779375       1.81682612        1 
H       0.69940698      -0.80280000       2.03545923        1 
