29
Lattice="0.0 0.0 0.0 0.0 0.0 0.0 0.0 0.0 0.0" Properties=species:S:1:pos:R:3:Z:I:1 pbc="F F F"
C      -0.94476735       0.77424958      -0.80059949        6 
C      -0.51302205      -0.73333989      -1.01174969        6 
C       0.14929285       1.74320759      -0.40720247        6 
C       0.95011188      -1.02703718      -0.73453976        6 
O       0.73298227       1.42647341       0.76787376        8 
O       0.49558111       2.67890136      -1.08622931        8 
O       1.15337184      -1.81435744       0.33740090        8 
O       1.84508367      -0.64647021      -1.45245418        8 
C       2.52500214      -2.13564850       0.63068172        6 
C       1.85698704       2.23905504       1.15112270        6 
C      -2.18459525       0.64160520       0.15918900        6 
C      -1.72607519       0.08195662       1.49536202        6 
C      -1.38180010      -1.19394101       1.30073871        6 
C      -1.59422577      -1.51046156      -0.17251118        6 
C      -2.83074116      -0.62479153      -0.45878620        6 
H       2.97854045      -2.67452911      -0.20264812        1 
H       1.55306084       3.27909591       1.27772420        1 
H      -0.91914496      -1.86425978       2.00947255        1 
H       2.49170839      -2.76104975       1.52011994        1 
H       3.09546761      -1.22547761       0.82104636        1 
H       2.20478732       1.82407998       2.09492461        1 
H       2.63744639       2.18119894       0.39096100        1 
H      -1.66258705      -2.56551265      -0.43449319        1 
H      -2.78827253       1.54792852       0.19033591        1 
H      -3.71559516      -0.95119443       0.08900347        1 
H      -3.06879419      -0.52336809      -1.52219382        1 
H      -1.60136410       0.66396362       2.39767964        1 
H      -1.30194982       1.16214846      -1.75480758        1 
H      -0.63623512      -0.96591623      -2.07183358        1 
