29
Lattice="0.0 0.0 0.0 0.0 0.0 0.0 0.0 0.0 0.0" Properties=species:S:1:pos:R:3:Z:I:1 pbc="F F F"
C      -0.62768797       0.46986887      -1.03452659        6 
C      -0.46605230      -1.07140125      -0.67364120        6 
C       0.52507391       1.38227872      -0.65875064        6 
C       0.73175785      -1.47622583       0.16523330        6 
O       0.33422075       2.02839357       0.50991553        8 
O       1.52295742       1.51124484      -1.32535735        8 
O       1.86944213      -1.33137866      -0.53826483        8 
O       0.69493183      -1.92273429       1.28697249        8 
C       3.09234076      -1.66585753       0.14000029        6 
C       1.40784527       2.88290699       0.94333104        6 
C      -2.05681088       0.79059580      -0.46836430        6 
C      -2.03618404       0.63512369       1.04488122        6 
C      -1.91289801      -0.66691238       1.31694693        6 
C      -1.84600378      -1.40701838      -0.01128633        6 
C      -2.77979155      -0.51919645      -0.86703555        6 
H       3.20727858      -1.05912881       1.03973619        1 
H       1.57270581       3.68532155       0.22261186        1 
H      -1.76363277      -1.12916335       2.28121796        1 
H       3.88453226      -1.44723094      -0.57202765        1 
H       3.09947517      -2.72155120       0.41651424        1 
H       1.08733155       3.28609054       1.90143159        1 
H       2.32897623       2.30930169       1.05634948        1 
H      -2.05452377      -2.47538227       0.02044313        1 
H      -2.46596222       1.72434406      -0.85333611        1 
H      -3.81455835      -0.54867666      -0.52314992        1 
H      -2.74010495      -0.73758108      -1.93918001        1 
H      -2.01229140       1.45755248       1.74431406        1 
H      -0.66069534       0.53688348      -2.12370877        1 
H      -0.35973459      -1.61433787      -1.61638218        1 
