29
Lattice="0.0 0.0 0.0 0.0 0.0 0.0 0.0 0.0 0.0" Properties=species:S:1:pos:R:3:Z:I:1 pbc="F F F"
C      -0.73671242       0.34629213       0.96810542        6 
C       0.80649357       0.60789983       0.85507473        6 
C      -1.29395265      -0.85827136       0.21888719        6 
C       1.71398930      -0.57822317       0.59861701        6 
O      -2.62501144      -0.68840947       0.00969712        8 
O      -0.71666523      -1.87062142      -0.07845306        8 
O       2.48274091      -0.40052485      -0.49843294        8 
O       1.75440669      -1.56176480       1.29149987        8 
C       3.34714729      -1.50160859      -0.83742916        6 
C      -3.30371411      -1.77599714      -0.64227058        6 
C      -1.31231487       1.68019389       0.31624415        6 
C      -1.06290296       1.51085522      -1.17959200        6 
C       0.25681581       1.60106774      -1.37692882        6 
C       0.90490090       1.88745776      -0.03334815        6 
C      -0.21609104       2.71169517       0.64811155        6 
H       4.06997651      -1.68036295      -0.03975979        1 
H      -3.19402377      -2.69792341      -0.06935768        1 
H       0.79976110       1.41436253      -2.29301389        1 
H       3.85298766      -1.20197969      -1.75287586        1 
H       2.75787443      -2.40544256      -0.99787762        1 
H      -4.34863657      -1.47685829      -0.69243691        1 
H      -2.90148760      -1.92906141      -1.64549798        1 
H       1.90399827       2.31748132      -0.06103971        1 
H      -2.33346804       1.90259749       0.61460985        1 
H      -0.39398301       3.67021906       0.15798015        1 
H      -0.05710965       2.86767162       1.71910006        1 
H      -1.81817878       1.23190614      -1.90158626        1 
H      -1.04329595       0.24170786       2.01083288        1 
H       1.11778871       0.91409900       1.86111982        1 
