29
Lattice="0.0 0.0 0.0 0.0 0.0 0.0 0.0 0.0 0.0" Properties=species:S:1:pos:R:3:Z:I:1 pbc="F F F"
C      -0.94957120      -0.24745808      -0.96536580        6 
C       0.51212429      -0.74238381      -0.70013883        6 
C      -1.52578865       1.03732950      -0.37832348        6 
C       1.65887255       0.22790747      -0.51239209        6 
O      -0.66356657       1.79772224       0.29906634        8 
O      -2.71380896       1.27066086      -0.43359303        8 
O       2.70110364      -0.39901947       0.09133382        8 
O       1.70442865       1.37614870      -0.86879749        8 
C       3.89140158       0.39057296       0.26210721        6 
C      -1.20861622       2.96963457       0.92939062        6 
C      -1.77847882      -1.42309005      -0.26047657        6 
C      -1.60040497      -1.17808969       1.23625612        6 
C      -0.33234562      -1.47350171       1.54323736        6 
C       0.34544848      -1.95763309       0.27179590        6 
C      -0.85086918      -2.63972002      -0.43943673        6 
H       4.27796753       0.71557980      -0.70535144        1 
H      -1.93949686       2.68835300       1.68987130        1 
H       0.16836853      -1.31661976       2.48938777        1 
H       4.60461286      -0.26350896       0.75929431        1 
H       3.68251677       1.26829857       0.87576198        1 
H      -0.35692384       3.47469710       1.37907955        1 
H      -1.68975560       3.61066605       0.18978625        1 
H       1.25834001      -2.53470044       0.39414546        1 
H      -2.80106667      -1.49071548      -0.62198798        1 
H      -1.21644619      -3.51702971       0.09629406        1 
H      -0.64932774      -2.90142353      -1.48236610        1 
H      -2.34613623      -0.72269514       1.87403171        1 
H      -1.16312325      -0.22546615      -2.03502722        1 
H       0.81308741      -1.20440745      -1.65279264        1 
