29
Lattice="0.0 0.0 0.0 0.0 0.0 0.0 0.0 0.0 0.0" Properties=species:S:1:pos:R:3:Z:I:1 pbc="F F F"
C       1.04304281      -0.61993824      -0.81536758        6 
C       0.41099059       0.81722340      -0.99763855        6 
C       0.13209006      -1.74672206      -0.38278414        6 
C      -1.08249748       0.90140865      -0.75198634        6 
O      -0.64390121      -1.41894222       0.67050408        8 
O       0.09802924      -2.82738088      -0.92027676        8 
O      -1.41358118       1.61742787       0.33754550        8 
O      -1.90034098       0.42376784      -1.50320027        8 
C      -2.82031120       1.71390275       0.62144051        6 
C      -1.60564964      -2.40853188       1.07976049        6 
C       2.26331056      -0.32855311       0.14419729        6 
C       1.72649026       0.12043819       1.49264413        6 
C       1.19652512       1.33581894       1.33088250        6 
C       1.36199851       1.72094140      -0.13146029        6 
C       2.71342746       1.03180050      -0.43887896        6 
H      -3.34327845       2.21423765      -0.19503957        1 
H      -1.10545027      -3.33195568       1.37440165        1 
H       0.63574909       1.90751746       2.05525673        1 
H      -2.89244864       2.29588575       1.53767429        1 
H      -3.24634324       0.71941045       0.76229184        1 
H      -2.13013304      -1.96903791       1.92558257        1 
H      -2.29795723      -2.61799985       0.26293695        1 
H       1.27592925       2.78153097      -0.36331144        1 
H       2.99120398      -1.13908410       0.15260555        1 
H       3.54341583       1.46969672       0.11701432        1 
H       2.96026964       0.99293408      -1.50416063        1 
H       1.68363979      -0.50050779       2.37698761        1 
H       1.44173443      -0.95349861      -1.77324909        1 
H       0.52208039       1.08716786      -2.05041268        1 
