29
Lattice="0.0 0.0 0.0 0.0 0.0 0.0 0.0 0.0 0.0" Properties=species:S:1:pos:R:3:Z:I:1 pbc="F F F"
C      -0.68262069       0.53485406      -0.99366009        6 
C      -0.53810006      -0.99185747      -0.66656794        6 
C       0.37157017       1.51569922      -0.52518939        6 
C       0.75361218      -1.53789102      -0.10223525        6 
O       0.78794382       1.29282773       0.73608505        8 
O       0.74156767       2.45741546      -1.18690381        8 
O       1.82787283      -0.90355759      -0.61623218        8 
O       0.83367775      -2.53406876       0.57530534        8 
C       3.11544790      -1.42150338      -0.23935039        6 
C       1.78778167       2.19186338       1.24148723        6 
C      -2.10562926       0.85030093      -0.34748984        6 
C      -1.96817990       0.71436003       1.16149819        6 
C      -1.80452062      -0.58324755       1.43891851        6 
C      -1.84147050      -1.34155009       0.12367152        6 
C      -2.84341100      -0.46948169      -0.67127231        6 
H       3.25537199      -1.33954558       0.83985422        1 
H       1.43114066       3.22235214       1.21200156        1 
H      -1.56758995      -1.02775530       2.39574783        1 
H       3.84010398      -0.80602179      -0.76783281        1 
H       3.20962494      -2.46747293      -0.53475121        1 
H       1.96924291       1.87646785       2.26679678        1 
H       2.70124164       2.11264220       0.64883834        1 
H      -2.03178929      -2.41072636       0.18384224        1 
H      -2.53800140       1.77829550      -0.71850117        1 
H      -3.84975636      -0.49686762      -0.25079266        1 
H      -2.88362759      -0.70252362      -1.73979813        1 
H      -1.88942918       1.54432015       1.85003698        1 
H      -0.74944355       0.68404329      -2.07026400        1 
H      -0.59878061      -1.51673178      -1.62939665        1 
