29
Lattice="0.0 0.0 0.0 0.0 0.0 0.0 0.0 0.0 0.0" Properties=species:S:1:pos:R:3:Z:I:1 pbc="F F F"
C      -0.76273465       0.48816359       0.86739746        6 
C       0.79862530       0.58919230       0.97151839        6 
C      -1.32291235      -0.70076501       0.11976115        6 
C       1.56212788      -0.68905219       0.68544984        6 
O      -2.66947839      -0.72842179       0.25044849        8 
O      -0.70616403      -1.51281588      -0.52322440        8 
O       2.27363241      -0.63693839      -0.45469971        8 
O       1.55988764      -1.63665254       1.43392383        8 
C       2.91364714      -1.86565356      -0.84463826        6 
C      -3.34880958      -1.79947405      -0.43100294        6 
C      -1.12609681       1.83363692       0.10095986        6 
C      -0.63303314       1.65105264      -1.32583964        6 
C       0.70322814       1.66276475      -1.29289684        6 
C       1.12862967       1.88155774       0.14970033        6 
C      -0.03322111       2.77780468       0.64631607        6 
H       3.61501061      -2.19618722      -0.07720420        1 
H      -3.00256520      -2.76586726      -0.06152865        1 
H       1.38074169       1.44522460      -2.10553490        1 
H       3.43597412      -1.63977309      -1.77196672        1 
H       2.15806469      -2.63602711      -1.00467033        1 
H      -4.40465525      -1.66010484      -0.20940436        1 
H      -3.17141626      -1.74212023      -1.50621095        1 
H       2.14446197       2.24168843       0.30300144        1 
H      -2.16690504       2.12439257       0.22745669        1 
H      -0.05177879       3.75417047       0.15936134        1 
H      -0.05942474       2.90413073       1.73269661        1 
H      -1.26427892       1.41494103      -2.17270768        1 
H      -1.21990130       0.50013446       1.85769722        1 
H       1.02672122       0.79333116       2.02107167        1 
