29
Lattice="0.0 0.0 0.0 0.0 0.0 0.0 0.0 0.0 0.0" Properties=species:S:1:pos:R:3:Z:I:1 pbc="F F F"
C      -0.69413590       0.66382695      -0.89116795        6 
C      -0.45926105      -0.89203679      -0.70070022        6 
C       0.22988504       1.58940549      -0.12111753        6 
C       0.75131255      -1.28089430       0.11936823        6 
O       1.51174284       1.41589615      -0.51327351        8 
O      -0.09914429       2.38498681       0.72232501        8 
O       1.78510589      -1.60240514      -0.68821710        8 
O       0.80688860      -1.35132010       1.32344898        8 
C       3.01643507      -1.94283758      -0.02991044        6 
C       2.49924611       2.18920829       0.19312619        6 
C      -2.20500225       0.82335606      -0.48815754        6 
C      -2.30006102       0.57484707       1.01120281        6 
C      -2.07055161      -0.72542257       1.21797622        6 
C      -1.84062726      -1.37364473      -0.13908430        6 
C      -2.77601035      -0.51081868      -1.02139873        6 
H       3.36475988      -1.10753039       0.58009709        1 
H       2.46436501       1.96048556       1.25932644        1 
H      -1.94532015      -1.22750439       2.16611388        1 
H       3.72414077      -2.15332384      -0.82882241        1 
H       2.88325985      -2.81897731       0.60673350        1 
H       3.45560389       1.89458744      -0.23361428        1 
H       2.32688154       3.25661153       0.04736865        1 
H      -1.96306257      -2.45549001      -0.18795499        1 
H      -2.65103940       1.74657191      -0.85456763        1 
H      -3.82895798      -0.64422068      -0.77040465        1 
H      -2.63036654      -0.65996533      -2.09616254        1 
H      -2.39937525       1.35092707       1.75508031        1 
H      -0.55367529       0.90044470      -1.94947700        1 
H      -0.30931062      -1.32647859      -1.68991167        1 
