29
Lattice="0.0 0.0 0.0 0.0 0.0 0.0 0.0 0.0 0.0" Properties=species:S:1:pos:R:3:Z:I:1 pbc="F F F"
C      -0.73046871       0.28314642       0.93389945        6 
C       0.81027169       0.50143648       0.77358874        6 
C      -1.38815982      -0.83897399       0.13665502        6 
C       1.70999695      -0.68581020       0.49960169        6 
O      -2.73276424      -0.62463806       0.10776642        8 
O      -0.88255340      -1.81940034      -0.33784943        8 
O       2.74506004      -0.33731635      -0.30291485        8 
O       1.56347988      -1.79119389       0.94963754        8 
C       3.68048530      -1.39030396      -0.60255121        6 
C      -3.51239126      -1.63008223      -0.56162358        6 
C      -1.27831680       1.67123014       0.36181011        6 
C      -1.09381459       1.55083898      -1.14847612        6 
C       0.21979517       1.59918258      -1.39603195        6 
C       0.93020059       1.81003652      -0.06984508        6 
C      -0.13176872       2.64866380       0.68425729        6 
H       4.13447816      -1.77172754       0.31339562        1 
H      -3.39016070      -2.59910975      -0.07491890        1 
H       0.71716799       1.42923065      -2.34143287        1 
H       4.43311008      -0.93614472      -1.24368981        1 
H       3.17594293      -2.20839459      -1.11885540        1 
H      -4.54449260      -1.29293893      -0.48983259        1 
H      -3.20976879      -1.71677616      -1.60684532        1 
H       1.94408938       2.19939925      -0.11890073        1 
H      -2.27802334       1.91659700       0.70965939        1 
H      -0.29297498       3.62966316       0.23451479        1 
H       0.07577142       2.76137742       1.75233590        1 
H      -1.88654811       1.32710658      -1.84963578        1 
H      -1.00932781       0.14358312       1.97964719        1 
H       1.15403079       0.78369921       1.77933782        1 
