29
Lattice="0.0 0.0 0.0 0.0 0.0 0.0 0.0 0.0 0.0" Properties=species:S:1:pos:R:3:Z:I:1 pbc="F F F"
C      -0.75788352       0.33661230       0.77407858        6 
C       0.80959911       0.27712194       0.73743713        6 
C      -1.64374504      -0.62125018       0.00204278        6 
C       1.57895971      -0.83353586       0.05100251        6 
O      -2.75747564      -0.87317530       0.74969470        8 
O      -1.48354590      -1.07430352      -1.09755082        8 
O       2.82991957      -0.87385873       0.59642059        8 
O       1.24113011      -1.56042972      -0.84216196        8 
C       3.73405488      -1.82382408       0.00697849        6 
C      -3.75456127      -1.69820939       0.12338719        6 
C      -1.04015629       1.81204030       0.23328128        6 
C      -0.63116664       1.82037303      -1.22920857        6 
C       0.70274611       1.74722656      -1.27519919        6 
C       1.20672937       1.69792639       0.15362973        6 
C       0.14713382       2.56866306       0.86028223        6 
H       3.34094068      -2.83739686       0.10195333        1 
H      -3.34380568      -2.68044956      -0.11641093        1 
H       1.31625141       1.60349578      -2.15428351        1 
H       4.66579640      -1.72057975       0.55908828        1 
H       3.88765449      -1.60188520      -1.05075915        1 
H      -4.55874841      -1.78604495       0.85097311        1 
H      -4.11761990      -1.23225471      -0.79470512        1 
H       2.25508164       1.93998477       0.31663303        1 
H      -2.04523979       2.16060698       0.46622404        1 
H       0.18734450       3.61163665       0.54218633        1 
H       0.18314669       2.50829068       1.95168477        1 
H      -1.31621751       1.74756858      -2.06228425        1 
H      -1.07943288       0.28806355       1.81389323        1 
H       1.15164269       0.25732018       1.77410044        1 
