29
Lattice="0.0 0.0 0.0 0.0 0.0 0.0 0.0 0.0 0.0" Properties=species:S:1:pos:R:3:Z:I:1 pbc="F F F"
C      -0.80833455       0.73981440       0.87780814        6 
C       0.73484035       0.38910839       0.92144417        6 
C      -1.83194033      -0.09049091       0.10875965        6 
C       1.23425847      -1.01470671       0.63883933        6 
O      -1.56986288      -1.39943264       0.07322028        8 
O      -2.81490965       0.40166616      -0.39832369        8 
O       2.24317297      -1.00583859      -0.26638039        8 
O       0.82528655      -2.02215118       1.15529369        8 
C       2.81063924      -2.28882508      -0.58522699        6 
C      -2.53356888      -2.23133274      -0.59748972        6 
C      -0.77172618       2.18362615       0.23251802        6 
C      -0.40715515       1.95264326      -1.23101904        6 
C       0.87545920       1.57496026      -1.26898497        6 
C       1.39779190       1.58052762       0.15798314        6 
C       0.56671153       2.73852811       0.75738851        6 
H       3.21670671      -2.76275955       0.30983120        1 
H      -2.63596139      -1.93213887      -1.64176902        1 
H       1.43685230       1.22926801      -2.12600405        1 
H       3.60142372      -2.08580780      -1.30432161        1 
H       2.05276037      -2.94133160      -1.02190027        1 
H      -2.13834151      -3.24166557      -0.52071490        1 
H      -3.50565586      -2.15921718      -0.10739531        1 
H       2.47841284       1.61785087       0.27657375        1 
H      -1.67508737       2.75885888       0.41762598        1 
H       0.81149684       3.70574031       0.31612803        1 
H       0.62605148       2.80434713       1.84793439        1 
H      -1.11585237       1.97124764      -2.04704542        1 
H      -1.18904924       0.78797555       1.90213688        1 
H       1.01491275       0.50776470       1.97611321        1 
