29
Lattice="0.0 0.0 0.0 0.0 0.0 0.0 0.0 0.0 0.0" Properties=species:S:1:pos:R:3:Z:I:1 pbc="F F F"
C      -0.80108353       0.50253297      -0.92505094        6 
C      -0.32781864      -0.98428248      -0.69208219        6 
C      -0.04006568       1.68416606      -0.35507894        6 
C       0.96836389      -1.23324074       0.05378299        6 
O       1.19749690       1.38488046       0.07100352        8 
O      -0.49246133       2.80496718      -0.34194473        8 
O       1.99353482      -1.35758800      -0.81971690        8 
O       1.09696031      -1.35992049       1.24612033        8 
C       3.29202477      -1.54911019      -0.23587197        6 
C       1.96549361       2.47063080       0.62174991        6 
C      -2.28820924       0.47770250      -0.39846998        6 
C      -2.19168445       0.32388862       1.11070013        6 
C      -1.76065822      -0.91734074       1.36043713        6 
C      -1.57909340      -1.61893468       0.02038426        6 
C      -2.70628640      -0.95148214      -0.80118305        6 
H       3.54600750      -0.70426931       0.40658320        1 
H       1.44015003       2.91539297       1.46755492        1 
H      -1.47298316      -1.33462495       2.31378257        1 
H       3.98270618      -1.61378649      -1.07401393        1 
H       3.31694018      -2.46672451       0.35401543        1 
H       2.90310993       2.02508800       0.94598223        1 
H       2.14139938       3.23406911      -0.13723480        1 
H      -1.54910046      -2.70763281       0.04613595        1 
H      -2.88041646       1.31054066      -0.76987776        1 
H      -3.70168196      -1.21212138      -0.43864741        1 
H      -2.64144441      -1.14532094      -1.87648189        1 
H      -2.33141340       1.12883877       1.81947345        1 
H      -0.81320267       0.69035925      -2.00399053        1 
H      -0.20793194      -1.44583009      -1.67365990        1 
