29
Lattice="0.0 0.0 0.0 0.0 0.0 0.0 0.0 0.0 0.0" Properties=species:S:1:pos:R:3:Z:I:1 pbc="F F F"
C      -0.59330920       0.10871956       0.93529728        6 
C       0.71113996       0.91821598       0.59063621        6 
C      -0.85975809      -1.18381572       0.16584941        6 
C       1.90539748       0.24977060      -0.05633284        6 
O      -2.19716494      -1.39548486       0.06485731        8 
O      -0.05559546      -2.00103445      -0.20190308        8 
O       2.27652277      -0.84120263       0.63313826        8 
O       2.57154231       0.74484217      -0.93564913        8 
C       3.39263715      -1.58070921       0.11241913        6 
C      -2.59302409      -2.63053614      -0.55654213        6 
C      -1.70507816       1.19284362       0.58534956        6 
C      -1.71890037       1.25556388      -0.94006811        6 
C      -0.57960310       1.83869324      -1.32915689        6 
C       0.18949881       2.22115863      -0.07678459        6 
C      -0.97969641       2.51935576       0.89243191        6 
H       3.16044542      -1.95103077      -0.88728069        1 
H      -2.19931402      -3.48297400      -0.00077506        1 
H      -0.20392726       1.94870887      -2.33718400        1 
H       3.53289395      -2.41318409       0.79827266        1 
H       4.28682991      -0.95657180       0.07257881        1 
H      -3.68088411      -2.62899647      -0.53697429        1 
H      -2.22785431      -2.67455433      -1.58400716        1 
H       0.96174009       2.97762465      -0.19679256        1 
H      -2.66105463       1.00775993       1.06851946        1 
H      -1.56765602       3.38745199       0.59040337        1 
H      -0.66851279       2.62983741       1.93559550        1 
H      -2.46712548       0.78926486      -1.56564283        1 
H      -0.61160206      -0.15953411       1.99434946        1 
H       1.12900201       1.21419029       1.56162984        1 
