29
Lattice="0.0 0.0 0.0 0.0 0.0 0.0 0.0 0.0 0.0" Properties=species:S:1:pos:R:3:Z:I:1 pbc="F F F"
C       0.43886668       1.10323851       0.64473172        6 
C       0.64682146      -0.41990868       1.05352823        6 
C      -0.77836340       1.40442747      -0.20578583        6 
C      -0.47943788      -1.36596874       0.68500573        6 
O      -1.88723593       1.41817999       0.56051928        8 
O      -0.79026822       1.62047041      -1.39368152        8 
O      -0.29990816      -1.98012736      -0.50049365        8 
O      -1.45058336      -1.54898112       1.37990647        8 
C      -1.35245704      -2.86576502      -0.92332171        6 
C      -3.13720921       1.60835610      -0.12564803        6 
C       1.80702363       1.45964832      -0.02983852        6 
C       1.90840979       0.67706818      -1.32878279        6 
C       2.07747347      -0.60894628      -1.01173946        6 
C       2.09016001      -0.71282612       0.50490906        6 
C       2.76571700       0.63409644       0.86049769        6 
H      -1.47848454      -3.67913411      -0.20719894        1 
H      -3.28879207       0.81725641      -0.86189299        1 
H       2.08358515      -1.45374005      -1.68452801        1 
H      -1.03528968      -3.24955342      -1.89050188        1 
H      -2.29349570      -2.32177224      -1.01701212        1 
H      -3.90081631       1.55991803       0.64701470        1 
H      -3.15484925       2.57632818      -0.62886523        1 
H       2.52718916      -1.61874925       0.92426228        1 
H       1.97998289       2.53286492      -0.09901617        1 
H       3.79982240       0.68522591       0.51730728        1 
H       2.71382392       0.88856005       1.92385975        1 
H       1.74761170       1.09630350      -2.31057848        1 
H       0.31428385       1.67320005       1.56754223        1 
H       0.66863856      -0.45857405       2.14370692        1 
