29
Lattice="0.0 0.0 0.0 0.0 0.0 0.0 0.0 0.0 0.0" Properties=species:S:1:pos:R:3:Z:I:1 pbc="F F F"
C      -0.65539497       0.64092528      -0.97647677        6 
C      -0.64749709      -0.91789830      -0.74773976        6 
C       0.56905677       1.44486800      -0.58921445        6 
C       0.55157200      -1.60072523      -0.12410199        6 
O       0.81162224       1.44080280       0.73699969        8 
O       1.24098942       2.06135659      -1.38156065        8 
O       1.71076242      -1.00131984      -0.45598346        8 
O       0.49431223      -2.64321784       0.48299583        8 
C       2.91614393      -1.63899366       0.00259699        6 
C       1.99800429       2.13213317       1.15914450        6 
C      -1.99692335       1.05804568      -0.24752791        6 
C      -1.85880029       0.75781940       1.23850641        6 
C      -1.86192387      -0.57085365       1.38770382        6 
C      -1.99742674      -1.18347969       0.00337680        6 
C      -2.89292200      -0.12645333      -0.68167583        6 
H       2.93033679      -1.68245994       1.09265829        1 
H       1.95199814       3.18570405       0.87998610        1 
H      -1.67715166      -1.13390779       2.29216531        1 
H       3.72899587      -1.01994939      -0.37037660        1 
H       2.98836624      -2.65107950      -0.39845976        1 
H       2.02943137       2.02153799       2.24114775        1 
H       2.87952327       1.67988519       0.70094264        1 
H      -2.31335098      -2.22338420      -0.03994855        1 
H      -2.32749454       2.06207936      -0.51153172        1 
H      -3.89141465      -0.07840162      -0.24495348        1 
H      -2.96944559      -0.24541353      -1.76700278        1 
H      -1.67390859       1.50135551       2.00039255        1 
H      -0.77186555       0.83410255      -2.04247200        1 
H      -0.70807269      -1.38711422      -1.73770060        1 
