29
Lattice="0.0 0.0 0.0 0.0 0.0 0.0 0.0 0.0 0.0" Properties=species:S:1:pos:R:3:Z:I:1 pbc="F F F"
C      -0.74302845      -0.17646942      -0.83552077        6 
C       0.67593112      -0.84841280      -0.77064837        6 
C      -0.93994230       1.13522837      -0.11074565        6 
C       1.75428851      -0.13003877       0.02202019        6 
O      -2.16379805       1.63451400      -0.40566941        8 
O      -0.16938918       1.68224844       0.63727627        8 
O       2.37314259       0.78155560      -0.76067084        8 
O       2.04421630      -0.32223234       1.17502469        8 
C       3.31096371       1.64046521      -0.08734332        6 
C      -2.51447784       2.87235656       0.23982453        6 
C      -1.69872468      -1.32554745      -0.31207957        6 
C      -1.37709524      -1.53804854       1.15722509        6 
C      -0.16458812      -2.09754836       1.22514696        6 
C       0.34156789      -2.27568597      -0.20033605        6 
C      -0.99272629      -2.55033210      -0.93407425        6 
H       2.80363342       2.18943622       0.70722496        1 
H      -1.82581540       3.66559528      -0.05561921        1 
H       0.42273555      -2.28314334       2.11141827        1 
H       3.68248509       2.32092463      -0.85074830        1 
H       4.12905496       1.05722949       0.33813594        1 
H      -3.52415643       3.09806860      -0.09632458        1 
H      -2.48616432       2.75924268       1.32454719        1 
H       1.14949550      -2.99289046      -0.33767238        1 
H      -2.74142819      -1.15250943      -0.57087014        1 
H      -1.45131771      -3.49264612      -0.63092579        1 
H      -0.91639678      -2.50869668      -2.02514036        1 
H      -1.97827222      -1.17504196       1.98034814        1 
H      -0.99812370       0.01797883      -1.88064236        1 
H       1.04814751      -0.94406605      -1.79227514        1 
