29
Lattice="0.0 0.0 0.0 0.0 0.0 0.0 0.0 0.0 0.0" Properties=species:S:1:pos:R:3:Z:I:1 pbc="F F F"
C       0.38745618       1.01898385       0.66503253        6 
C       0.72116048      -0.48918665       0.98852470        6 
C      -0.91973006       1.36053318      -0.01376949        6 
C      -0.04882982      -1.62667836       0.33185998        6 
O      -1.94883026       1.24315885       0.85260724        8 
O      -1.03903767       1.80753239      -1.12894080        8 
O      -1.29112977      -1.30249238      -0.06402355        8 
O       0.42221616      -2.72894752       0.17628474        8 
C      -2.03331359      -2.33755941      -0.73702354        6 
C      -3.25519225       1.49965610       0.31550192        6 
C       1.66724658       1.51603592      -0.07714752        6 
C       1.81342485       0.70476781      -1.35334632        6 
C       2.17091830      -0.53623164      -1.00530735        6 
C       2.23075109      -0.58376671       0.51682574        6 
C       2.73752001       0.84174650       0.81297277        6 
H      -1.52533267      -2.62718957      -1.65784899        1 
H      -3.46423838       0.81832812      -0.51142526        1 
H       2.26899480      -1.40057875      -1.64734517        1 
H      -3.00418180      -1.89975527      -0.95763312        1 
H      -2.14033753      -3.21098591      -0.09295637        1 
H      -3.94790762       1.32632005       1.13637030        1 
H      -3.33229345       2.52807991      -0.04135604        1 
H       2.76420241      -1.42301375       0.95557810        1 
H       1.70441394       2.59841655      -0.18757591        1 
H       3.75213259       1.00301676       0.44628261        1 
H       2.67340435       1.12657700       1.86762846        1 
H       1.56070278       1.06768158      -2.33924182        1 
H       0.33165227       1.53147108       1.63014654        1 
H       0.64399301      -0.65810667       2.06632688        1 
