29
Lattice="0.0 0.0 0.0 0.0 0.0 0.0 0.0 0.0 0.0" Properties=species:S:1:pos:R:3:Z:I:1 pbc="F F F"
C      -0.68732717       0.68760324       0.79144934        6 
C       0.81190423       0.21262780       0.74920092        6 
C      -1.71377615      -0.08116621      -0.02123152        6 
C       1.17081983      -1.03023866      -0.03014600        6 
O      -2.39645595      -0.93005874       0.78956188        8 
O      -1.90811734      -0.01023505      -1.20566201        8 
O       2.22463108      -1.64627588       0.56576285        8 
O       0.67083727      -1.42925956      -1.05029107        8 
C       2.73413925      -2.81093120      -0.10851605        6 
C      -3.35391106      -1.78294157       0.13468364        6 
C      -0.56402461       2.19109309       0.31464759        6 
C      -0.13268149       2.17777807      -1.14324625        6 
C       1.13922112       1.76892757      -1.18499487        6 
C       1.57867018       1.50187515       0.24008812        6 
C       0.76751961       2.58048739       0.99235188        6 
H       1.96686429      -3.58495201      -0.16473317        1 
H      -2.86676861      -2.37063609      -0.64451456        1 
H       1.71807651       1.53140699      -2.06710888        1 
H       3.57541464      -3.14928139       0.49245744        1 
H       3.06001489      -2.55769279      -1.11877768        1 
H      -3.74969842      -2.42859441       0.91596609        1 
H      -4.15322926      -1.18856729      -0.31127667        1 
H       2.65009931       1.44814571       0.42690504        1 
H      -1.44512697       2.78592233       0.55321602        1 
H       1.08578705       3.59204725       0.73576789        1 
H       0.76702589       2.45335353       2.07932001        1 
H      -0.79310529       2.34099243      -1.98135025        1 
H      -1.01892599       0.66081026       1.82927016        1 
H       1.13564549       0.02721371       1.77436624        1 
