29
Lattice="0.0 0.0 0.0 0.0 0.0 0.0 0.0 0.0 0.0" Properties=species:S:1:pos:R:3:Z:I:1 pbc="F F F"
C      -0.81558251       0.39735580       0.69110352        6 
C       0.72749949       0.28138249       0.86104055        6 
C      -1.64890081      -0.82095947       0.35500189        6 
C       1.49422590      -0.72683367       0.02181402        6 
O      -2.91371308      -0.43047392       0.04503423        8 
O      -1.30572102      -1.97227051       0.37955222        8 
O       2.79956749      -0.70697251       0.40873602        8 
O       1.08269252      -1.44594724      -0.84697929        8 
C       3.67265601      -1.59909055      -0.30519075        6 
C      -3.84357778      -1.49081282      -0.23956538        6 
C      -1.02936047       1.74344825      -0.08340708        6 
C      -0.30267299       1.66217307      -1.41465348        6 
C       1.01062766       1.68842399      -1.16334712        6 
C       1.18391786       1.73432036       0.34973251        6 
C      -0.02992931       2.60940332       0.72264656        6 
H       3.33133384      -2.63046456      -0.20370695        1 
H      -3.95215147      -2.14887285       0.62444074        1 
H       1.81456631       1.54820713      -1.87389986        1 
H       4.65317455      -1.47248806       0.14900393        1 
H       3.70468331      -1.33839555      -1.36482958        1 
H      -4.78685563      -0.99702620      -0.46396125        1 
H      -3.50405900      -2.07786996      -1.09426497        1 
H       2.16366454       2.02518899       0.72069140        1 
H      -2.06945334       2.05817794      -0.11179281        1 
H       0.06164933       3.62273612       0.32856156        1 
H      -0.24567436       2.64690282       1.79408897        1 
H      -0.78328877       1.50597688      -2.37121214        1 
H      -1.18948253       0.61472903       1.70240244        1 
H       1.00977377       0.14187698       1.90412566        1 
