29
Lattice="0.0 0.0 0.0 0.0 0.0 0.0 0.0 0.0 0.0" Properties=species:S:1:pos:R:3:Z:I:1 pbc="F F F"
C      -0.74530499       0.71660553       0.72175817        6 
C       0.74857756       0.26662987       0.89037421        6 
C      -1.64869731      -0.15654338      -0.12787317        6 
C       1.10926331      -1.11809129       0.39857815        6 
O      -2.72731910      -0.55078875       0.58708428        8 
O      -1.47778299      -0.45245058      -1.28347302        8 
O       2.42509336      -1.20418582       0.10615540        8 
O       0.34733643      -2.04798371       0.30435807        8 
C       2.88380754      -2.49225147      -0.34795023        6 
C      -3.64549614      -1.42039921      -0.09917540        6 
C      -0.56300321       2.15415997       0.07523865        6 
C       0.03557543       1.96147343      -1.31107071        6 
C       1.30317661       1.56709609      -1.15498934        6 
C       1.57284767       1.48199182       0.33534827        6 
C       0.68472159       2.63973694       0.84517239        6 
H       2.74428735      -3.24396741       0.43061391        1 
H      -3.13175913      -2.32593739      -0.42471971        1 
H       1.98524894       1.23381368      -1.92525574        1 
H       3.94069161      -2.36133886      -0.56940419        1 
H       2.33587082      -2.79519621      -1.24106848        1 
H      -4.41985925      -1.65675749       0.62762722        1 
H      -4.07507071      -0.91756436      -0.96755184        1 
H       2.61542478       1.46990422       0.64475972        1 
H      -1.46348608       2.76433992       0.13519460        1 
H       1.03291796       3.61518556       0.50173604        1 
H       0.55532239       2.65366823       1.93176236        1 
H      -0.52318142       2.01156697      -2.23437133        1 
H      -1.21124587       0.81907342       1.70026638        1 
H       0.94293673       0.20559206       1.96905108        1 
