29
Lattice="0.0 0.0 0.0 0.0 0.0 0.0 0.0 0.0 0.0" Properties=species:S:1:pos:R:3:Z:I:1 pbc="F F F"
C      -0.96375487       0.51516402      -0.73972750        6 
C      -0.08068348      -0.77413758      -0.79808941        6 
C      -0.41669625       1.81090988      -0.18241476        6 
C       1.16884291      -0.83044244       0.05323358        6 
O       0.90177868       1.94315992      -0.41838194        8 
O      -1.10933462       2.70590431       0.24083123        8 
O       2.10731673      -1.59487196      -0.55739678        8 
O       1.32757549      -0.34064845       1.14302404        8 
C       3.32269449      -1.80455893       0.18301001        6 
C       1.50402190       3.17798954       0.00729996        6 
C      -2.32686771       0.02362330      -0.14711354        6 
C      -2.07058024      -0.45007478       1.27229758        6 
C      -1.36128161      -1.58084306       1.19938049        6 
C      -1.11426088      -1.87464252      -0.27411307        6 
C      -2.42771163      -1.33414188      -0.88244942        6 
H       3.81227509      -0.85155885       0.38944102        1 
H       1.40017491       3.29319772       1.08699409        1 
H      -0.91196504      -2.12242466       2.02029312        1 
H       3.94753022      -2.42725706      -0.45364383        1 
H       3.11358936      -2.30983683       1.12759454        1 
H       2.55337756       3.09797284      -0.26772337        1 
H       1.03634967       4.02618666      -0.49519361        1 
H      -0.81424305      -2.89025449      -0.52843754        1 
H      -3.13442952       0.73888521      -0.28446507        1 
H      -3.29690478      -1.91696324      -0.57446960        1 
H      -2.40552877      -1.24853699      -1.97317877        1 
H      -2.32245696       0.11192181       2.16103351        1 
H      -1.15911988       0.79291886      -1.78445636        1 
H       0.19839560      -1.00686460      -1.82465078        1 
