29
Lattice="0.0 0.0 0.0 0.0 0.0 0.0 0.0 0.0 0.0" Properties=species:S:1:pos:R:3:Z:I:1 pbc="F F F"
C      -0.69360004       0.43288994      -1.05784942        6 
C      -0.42271080      -1.07021066      -0.62410127        6 
C       0.39331311       1.42849855      -0.70372105        6 
C       0.83136909      -1.29363318       0.19697303        6 
O       0.38882205       1.78620357       0.59172259        8 
O       1.19834802       1.84676775      -1.50368929        8 
O       1.87740970      -1.54069999      -0.62417581        8 
O       0.93310597      -1.24408982       1.39753464        8 
C       3.15938865      -1.69864483       0.00950062        6 
C       1.44123273       2.67069715       1.01433380        6 
C      -2.14761094       0.68128974      -0.49944523        6 
C      -2.11710260       0.62129097       1.01869966        6 
C      -1.88771593      -0.64710858       1.36919797        6 
C      -1.76609799      -1.46114082       0.09093957        6 
C      -2.76598710      -0.70278055      -0.81351291        6 
H       3.42750563      -0.79230174       0.55481303        1 
H       1.38909400       3.61602999       0.47207931        1 
H      -1.69259378      -1.02809727       2.36043304        1 
H       3.86244998      -1.87792110      -0.80062704        1 
H       3.14349693      -2.54262033       0.70088595        1 
H       1.27728452       2.82493346       2.07835030        1 
H       2.41541200       2.21103177       0.84063575        1 
H      -1.89586218      -2.53870230       0.18851379        1 
H      -2.62450845       1.55437615      -0.94434032        1 
H      -3.79513459      -0.78992416      -0.46268942        1 
H      -2.70914591      -0.98384852      -1.86994767        1 
H      -2.14922393       1.48362588       1.66834466        1 
H      -0.72936800       0.46011065      -2.14714094        1 
H      -0.30697733      -1.65858850      -1.53528615        1 
