29
Lattice="0.0 0.0 0.0 0.0 0.0 0.0 0.0 0.0 0.0" Properties=species:S:1:pos:R:3:Z:I:1 pbc="F F F"
C      -0.71791528       0.90930859       0.61440919        6 
C       0.60284198       0.12956393       0.93586210        6 
C      -1.87766331       0.19212705      -0.03997623        6 
C       0.87229375      -1.12563935       0.11660818        6 
O      -2.26310451      -0.86171954       0.70422258        8 
O      -2.50502126       0.61262271      -0.98257278        8 
O       2.19279867      -1.42846357       0.15547864        8 
O       0.06306812      -1.83564217      -0.42425820        8 
C       2.58006035      -2.63425375      -0.52775210        6 
C      -3.33649002      -1.65600624       0.17381280        6 
C      -0.22973463       2.22087161      -0.06320997        6 
C       0.54138445       1.85327488      -1.31962536        6 
C       1.69823710       1.29914259      -0.93848165        6 
C       1.69375046       1.23707807       0.58635704        6 
C       0.93922451       2.54714479       0.89812897        6 
H       2.08019817      -3.49977482      -0.08981494        1 
H      -3.03765319      -2.09289990      -0.78025846        1 
H       2.44996627       0.84597342      -1.57037568        1 
H       3.65762361      -2.70792937      -0.39743363        1 
H       2.32366135      -2.57137441      -1.58648537        1 
H      -3.50987656      -2.43805395       0.90996560        1 
H      -4.23429831      -1.05144868       0.03531467        1 
H       2.65381039       1.06828203       1.06723049        1 
H      -1.01790900       2.96138744      -0.18102546        1 
H       1.50386169       3.42875166       0.59122667        1 
H       0.63306848       2.65042604       1.94345543        1 
H       0.15391062       1.94816187      -2.32463083        1 
H      -1.13784222       1.19453547       1.58656128        1 
H       0.64639283      -0.16035904       1.98797752        1 
