29
Lattice="0.0 0.0 0.0 0.0 0.0 0.0 0.0 0.0 0.0" Properties=species:S:1:pos:R:3:Z:I:1 pbc="F F F"
C      -0.83518290       0.55105620      -0.86449255        6 
C      -0.29355639      -0.92023049      -0.70961470        6 
C      -0.07619231       1.74228833      -0.31701237        6 
C       0.97585154      -1.15740068       0.08760992        6 
O       1.21529806       1.47860522      -0.05734198        8 
O      -0.55767568       2.84776392      -0.23457974        8 
O       1.99359612      -1.48605258      -0.74164528        8 
O       1.09213207      -1.11499067       1.28714010        8 
C       3.26160542      -1.72888499      -0.10989225        6 
C       2.01311808       2.57835209       0.41737076        6 
C      -2.31221958       0.45138589      -0.33137688        6 
C      -2.21866336       0.19021669       1.16218742        6 
C      -1.75391747      -1.05312421       1.32338259        6 
C      -1.53814981      -1.64766190      -0.06275464        6 
C      -2.68069926      -0.95758032      -0.84232806        6 
H       3.58972462      -0.84318769       0.43652063        1 
H       1.59435408       2.97827354       1.34138064        1 
H      -1.46114394      -1.52912211       2.24726228        1 
H       3.95142554      -1.95751262      -0.91949871        1 
H       3.19100314      -2.56921043       0.58290877        1 
H       3.00165477       2.16118890       0.59510920        1 
H       2.05621615       3.36911551      -0.33311984        1 
H      -1.47372619      -2.73390982      -0.11954153        1 
H      -2.93147080       1.28844653      -0.64518605        1 
H      -3.66844064      -1.27951279      -0.50861178        1 
H      -2.60224798      -1.06837056      -1.92841060        1 
H      -2.38427755       0.93631465       1.92750491        1 
H      -0.88003315       0.76624941      -1.93889213        1 
H      -0.12098429      -1.32757663      -1.70552904        1 
