29
Lattice="0.0 0.0 0.0 0.0 0.0 0.0 0.0 0.0 0.0" Properties=species:S:1:pos:R:3:Z:I:1 pbc="F F F"
C       0.56452857       0.99604288       0.78435887        6 
C       0.59694620      -0.57855444       0.98988641        6 
C      -0.54467251       1.63720355      -0.03549500        6 
C      -0.64927774      -1.38120266       0.67312015        6 
O      -1.76193987       1.22550904       0.35168527        8 
O      -0.36718453       2.46928967      -0.89386159        8 
O      -0.55207071      -2.05465969      -0.49474029        8 
O      -1.62633992      -1.42364975       1.37808091        8 
C      -1.70124493      -2.83667703      -0.86712968        6 
C      -2.88761087       1.79745714      -0.33795908        6 
C       1.97251719       1.26445549       0.13680089        6 
C       1.90158616       0.70331183      -1.27637006        6 
C       1.86824102      -0.62893856      -1.17567358        6 
C       1.94309222      -0.98370789       0.30119366        6 
C       2.82992409       0.17488185       0.81722140        6 
H      -1.89799535      -3.60764366      -0.12030028        1 
H      -2.81665770       1.60317273      -1.40933601        1 
H       1.71201876      -1.34535548      -1.96920257        1 
H      -1.44818722      -3.28654691      -1.82477194        1 
H      -2.58132520      -2.19879703      -0.96139685        1 
H      -3.76075042       1.30739761       0.08666453        1 
H      -2.93019010       2.87510157      -0.17174501        1 
H       2.25539213      -2.00013818       0.53810543        1 
H       2.29617213       2.29900367       0.22811013        1 
H       3.84440155       0.13711089       0.41779586        1 
H       2.86415697       0.25054687       1.90859146        1 
H       1.76747085       1.30148916      -2.16567181        1 
H       0.49700957       1.46222320       1.77201457        1 
H       0.71471443      -0.73487958       2.06535012        1 
