29
Lattice="0.0 0.0 0.0 0.0 0.0 0.0 0.0 0.0 0.0" Properties=species:S:1:pos:R:3:Z:I:1 pbc="F F F"
C       0.39636530       1.06730376       0.63887026        6 
C       0.71640690      -0.41541859       1.02803445        6 
C      -0.95873908       1.41094780       0.06846507        6 
C      -0.11260468      -1.56156982       0.48538028        6 
O      -1.94506562       0.90928522       0.84368647        8 
O      -1.15491815       2.16294968      -0.85480294        8 
O      -0.88817162      -1.22978698      -0.56218325        8 
O       0.00394451      -2.69590827       0.88841805        8 
C      -1.59811728      -2.30513063      -1.20052052        6 
C      -3.28895730       1.17925483       0.41207893        6 
C       1.63434466       1.51878888      -0.19589104        6 
C       1.69674866       0.66047929      -1.44691443        6 
C       2.04864152      -0.57446461      -1.07395888        6 
C       2.19410706      -0.57182502       0.44088267        6 
C       2.74404968       0.85383161       0.65491455        6 
H      -0.89997904      -3.06025062      -1.56518279        1 
H      -3.46446130       0.73748989      -0.57073545        1 
H       2.09171223      -1.46023828      -1.69448048        1 
H      -2.13225504      -1.84593401      -2.02956050        1 
H      -2.29516373      -2.76925539      -0.50120251        1 
H      -3.93263916       0.71653978       1.15717522        1 
H      -3.47072274       2.25369033       0.36004474        1 
H       2.73204101      -1.40770296       0.88282253        1 
H       1.68153073       2.59513547      -0.34640621        1 
H       3.73795787       0.98137047       0.22355545        1 
H       2.74890720       1.17408664       1.70112431        1 
H       1.39479508       0.99062967      -2.43111387        1 
H       0.41502399       1.63563853       1.57675804        1 
H       0.74038603      -0.54192136       2.11016961        1 
