29
Lattice="0.0 0.0 0.0 0.0 0.0 0.0 0.0 0.0 0.0" Properties=species:S:1:pos:R:3:Z:I:1 pbc="F F F"
C      -0.47394231       0.82889775      -0.73324667        6 
C      -0.60893772      -0.74717810      -0.82003139        6 
C       0.65810040       1.34684252       0.12838351        6 
C       0.38233316      -1.53640015       0.01134719        6 
O       1.65011429       1.84427050      -0.64916308        8 
O       0.71034749       1.33753924       1.33281789        8 
O       1.50763121      -1.76147128      -0.71121956        8 
O       0.25389114      -1.89123836       1.15450013        8 
C       2.57655586      -2.43342156      -0.01924882        6 
C       2.80376617       2.34424614       0.05059972        6 
C      -1.91476216       1.26549379      -0.27416106        6 
C      -2.15709839       0.73830714       1.13001487        6 
C      -2.27875091      -0.58962717       1.04513682        6 
C      -2.11421371      -0.97371386      -0.41819617        6 
C      -2.75313399       0.25918221      -1.09787364        6 
H       2.85160894      -1.88301689       0.88164572        1 
H       3.25878380       1.55309712       0.64887276        1 
H      -2.34233174      -1.29391705       1.86080113        1 
H       3.40486438      -2.46214202      -0.72388721        1 
H       2.27472693      -3.44475032       0.25842888        1 
H       3.48879780       2.68260850      -0.72361437        1 
H       2.52522736       3.17075004       0.70636319        1 
H      -2.48666361      -1.95629574      -0.70716398        1 
H      -2.10338605       2.32641479      -0.43698644        1 
H      -3.82168543       0.34087543      -0.89469329        1 
H      -2.57522277       0.31366791      -2.17656036        1 
H      -2.10034914       1.33369610       2.02940334        1 
H      -0.29431861       1.20338492      -1.74096928        1 
H      -0.45509226      -1.03970127      -1.85957670        1 
