29
Lattice="0.0 0.0 0.0 0.0 0.0 0.0 0.0 0.0 0.0" Properties=species:S:1:pos:R:3:Z:I:1 pbc="F F F"
C      -0.76322665       0.39426783       1.01372516        6 
C       0.75758864       0.69041374       0.74227986        6 
C      -1.21725699      -1.00548379       0.65284063        6 
C       1.50730223      -0.35405276      -0.05195325        6 
O      -2.20286721      -1.02084570      -0.26195503        8 
O      -0.77294246      -1.99994153       1.17510385        8 
O       2.77174089      -0.48479461       0.40495693        8 
O       1.07706311      -0.96950800      -0.99684686        8 
C       3.59384826      -1.44128961      -0.28987362        6 
C      -2.64743889      -2.32306458      -0.68673177        6 
C      -1.48968761       1.61500886       0.35093227        6 
C      -1.25634989       1.54802544      -1.14817434        6 
C       0.03146947       1.82454651      -1.37157267        6 
C       0.68541280       2.07901984      -0.02473636        6 
C      -0.49249600       2.73500083       0.73225878        6 
H       3.15676744      -2.43817796      -0.21628175        1 
H      -3.05785170      -2.88155264       0.15595160        1 
H       0.56068955       1.74952725      -2.31160070        1 
H       4.56043032      -1.40816761       0.20786749        1 
H       3.69269809      -1.16892847      -1.34188322        1 
H      -3.41567332      -2.13633605      -1.43409948        1 
H      -1.81456440      -2.87831293      -1.11948982        1 
H       1.63854787       2.60578486      -0.03286301        1 
H      -2.52303011       1.72947810       0.67408949        1 
H      -0.76744988       3.70326352       0.31130231        1 
H      -0.32538177       2.83178738       1.80930980        1 
H      -1.98640502       1.20713831      -1.86753733        1 
H      -0.91111368       0.44757149       2.09639716        1 
H       1.28534587       0.83603575       1.68392629        1 
