29
Lattice="0.0 0.0 0.0 0.0 0.0 0.0 0.0 0.0 0.0" Properties=species:S:1:pos:R:3:Z:I:1 pbc="F F F"
C       0.55205879       0.99141876       0.69156716        6 
C       0.68140701      -0.54167574       0.99697182        6 
C      -0.72849460       1.55327914       0.11819185        6 
C      -0.38921857      -1.50920122       0.54045674        6 
O      -1.81413732       0.92527191       0.61515760        8 
O      -0.79169307       2.55033575      -0.55996717        8 
O      -0.80750734      -1.29251611      -0.72152778        8 
O      -0.76548075      -2.44350800       1.20935979        8 
C      -1.80638523      -2.19541962      -1.22281385        6 
C      -3.09385653       1.43585758       0.20268816        6 
C       1.85733448       1.33783814      -0.09595402        6 
C       1.79175732       0.61216597      -1.42708972        6 
C       1.93261405      -0.69416656      -1.18065692        6 
C       2.08731147      -0.86813903       0.32191782        6 
C       2.85296687       0.43000388       0.66486938        6 
H      -1.45090678      -3.22597775      -1.18194436        1 
H      -3.20727396       1.34204784      -0.87878145        1 
H       1.82913027      -1.50622985      -1.88717166        1 
H      -1.98248516      -1.89013911      -2.25221514        1 
H      -2.72307960      -2.11018598      -0.63604586        1 
H      -3.82932770       0.82283038       0.71909026        1 
H      -3.19922426       2.48421513       0.48513258        1 
H       2.50751822      -1.81298612       0.66343456        1 
H       2.06425745       2.40473219      -0.13474900        1 
H       3.85303812       0.44843981       0.22928915        1 
H       2.91174566       0.63687038       1.73771344        1 
H       1.55041317       1.08169664      -2.37078589        1 
H       0.61096723       1.50342181       1.66100943        1 
H       0.76617890      -0.70332858       2.07032081        1 
