29
Lattice="0.0 0.0 0.0 0.0 0.0 0.0 0.0 0.0 0.0" Properties=species:S:1:pos:R:3:Z:I:1 pbc="F F F"
C       0.59643477       0.97493924       0.79414285        6 
C       0.61711791      -0.59878105       0.99848391        6 
C      -0.51561270       1.61310572      -0.02378406        6 
C      -0.64906628      -1.37362598       0.69640089        6 
O      -1.73080645       1.19246487       0.36484054        8 
O      -0.34518669       2.44115692      -0.88666329        8 
O      -0.63865536      -1.93473669      -0.53233813        8 
O      -1.58091419      -1.46673669       1.45605341        8 
C      -1.82926385      -2.65013927      -0.90663300        6 
C      -2.86067268       1.74857849      -0.33062873        6 
C       2.00226869       1.23198188       0.13578474        6 
C       1.91574829       0.67643623      -1.27878588        6 
C       1.86848543      -0.65570696      -1.18275775        6 
C       1.95028496      -1.01722089       0.29186517        6 
C       2.85378151       0.13073553       0.80525310        6 
H      -2.01456504      -3.47542693      -0.21731821        1 
H      -2.78493960       1.54853457      -1.40065604        1 
H       1.69603381      -1.36623188      -1.97828308        1 
H      -1.63994201      -3.02431549      -1.91048180        1 
H      -2.69070875      -1.98035093      -0.90118980        1 
H      -3.72997453       1.25262599       0.09520288        1 
H      -2.91497037       2.82666552      -0.17117761        1 
H       2.25525530      -2.03722927       0.52342191        1 
H       2.33839886       2.26242643       0.22861905        1 
H       3.86451797       0.08386637       0.39749054        1 
H       2.89788493       0.20145021       1.89654510        1 
H       1.77942560       1.27855743      -2.16506782        1 
H       0.53753229       1.44357295       1.78102660        1 
H       0.74770532      -0.76023502       2.07113277        1 
