29
Lattice="0.0 0.0 0.0 0.0 0.0 0.0 0.0 0.0 0.0" Properties=species:S:1:pos:R:3:Z:I:1 pbc="F F F"
C      -0.73183430       0.58421921       0.74439707        6 
C       0.81793852       0.51540271       0.99711073        6 
C      -1.44147180      -0.62047540       0.17067939        6 
C       1.57531534      -0.76224684       0.67311647        6 
O      -2.77579501      -0.48650244       0.37389962        8 
O      -0.96078125      -1.56070745      -0.40987635        8 
O       1.77787454      -0.95865287      -0.63718287        8 
O       2.05050016      -1.47169956       1.53136958        8 
C       2.39376934      -2.20228122      -1.00761004        6 
C      -3.60506317      -1.53674219      -0.15604143        6 
C      -0.90132279       1.89680038      -0.12140018        6 
C      -0.24696955       1.64951390      -1.46662447        6 
C       1.07331821       1.59483884      -1.26624848        6 
C       1.32484771       1.79999575       0.21934321        6 
C       0.17381845       2.77703245       0.55373760        6 
H       3.37664887      -2.30230890      -0.54490189        1 
H      -3.32993147      -2.49795706       0.28051017        1 
H       1.83235094       1.33523334      -1.98896270        1 
H       2.47863190      -2.17025822      -2.09192982        1 
H       1.75756647      -3.03399986      -0.70155293        1 
H      -4.62279908      -1.26847919       0.11912267        1 
H      -3.50351354      -1.59405759      -1.24113245        1 
H       2.33456609       2.09544706       0.50156598        1 
H      -1.92655218       2.26250737      -0.13090026        1 
H       0.28909389       3.74263354       0.05921531        1 
H       0.01508960       2.92332872       1.62616295        1 
H      -0.77939679       1.43921736      -2.38485951        1 
H      -1.22170915       0.77299709       1.70271432        1 
H       0.99124888       0.66092790       2.06289318        1 
