29
Lattice="0.0 0.0 0.0 0.0 0.0 0.0 0.0 0.0 0.0" Properties=species:S:1:pos:R:3:Z:I:1 pbc="F F F"
C      -0.16987902       1.15359686       0.67194275        6 
C       0.69434953      -0.14062522       1.00264753        6 
C      -1.43933363       1.03809790      -0.15213898        6 
C       0.19007608      -1.50093138       0.54531730        6 
O      -2.36166325       0.29430997       0.47437885        8 
O      -1.65199814       1.63760782      -1.18107758        8 
O       1.07954101      -2.13425830      -0.25393616        8 
O      -0.84992412      -2.00557160       0.88694104        8 
C       0.70284742      -3.45174664      -0.69301438        6 
C      -3.61900405       0.11914562      -0.19975697        6 
C       0.88707645       2.11542328       0.03967674        6 
C       1.30624359       1.51047856      -1.29042176        6 
C       2.03964051       0.42513070      -1.02431579        6 
C       2.11763288       0.28105436       0.48886377        6 
C       2.12151783       1.77054926       0.90341690        6 
H       0.55132246      -4.11177179       0.16255371        1 
H      -3.46348076      -0.30934300      -1.19092290        1 
H       2.41891857      -0.30231905      -1.72726626        1 
H       1.53142192      -3.80090615      -1.30541538        1 
H      -0.21675320      -3.40979888      -1.27879108        1 
H      -4.18627205      -0.56545202       0.42637273        1 
H      -4.13736247       1.07470009      -0.29897185        1 
H       2.91631415      -0.35096490       0.87285160        1 
H       0.55754461       3.15234936       0.01316255        1 
H       3.02056877       2.29253423       0.57326746        1 
H       1.97143316       1.93137484       1.97561880        1 
H       0.95516811       1.85175187      -2.25340392        1 
H      -0.50708043       1.56149787       1.62979832        1 
H       0.72264137      -0.23390298       2.09218525        1 
