29
Lattice="0.0 0.0 0.0 0.0 0.0 0.0 0.0 0.0 0.0" Properties=species:S:1:pos:R:3:Z:I:1 pbc="F F F"
C      -0.47376785       0.89812817       0.66155368        6 
C       0.86730286       0.16308904       1.04971878        6 
C      -1.53922044       0.11585510      -0.07271911        6 
C       0.98253254      -1.32023897       0.74741645        6 
O      -2.75121867       0.34906236       0.48940941        8 
O      -1.39191427      -0.58719987      -1.04127885        8 
O       1.24003292      -1.59713425      -0.53691172        8 
O       0.91916797      -2.16861174       1.60989943        8 
C       1.27550724      -2.98786226      -0.89715556        6 
C      -3.87325310      -0.29166768      -0.14481043        6 
C       0.04044162       2.15317492      -0.15260773        6 
C       0.66685335       1.65763061      -1.44177791        6 
C       1.80564158       1.03594662      -1.12173220        6 
C       1.95778831       1.09848404       0.38802717        6 
C       1.31208269       2.47619612       0.66617834        6 
H       2.06558070      -3.50773067      -0.35281745        1 
H      -3.74691141      -1.37530927      -0.13865114        1 
H       2.44836799       0.47234984      -1.78170871        1 
H       1.46830477      -3.00250008      -1.96753919        1 
H       0.31474430      -3.45522688      -0.67752901        1 
H      -4.74186489      -0.00379165       0.44327923        1 
H      -3.97671742       0.05068886      -1.17598603        1 
H       2.95820506       0.92466138       0.78271071        1 
H      -0.71576135       2.93248767      -0.24234393        1 
H       1.88313822       3.29917206       0.23469483        1 
H       1.11889265       2.66972992       1.72541177        1 
H       0.19387903       1.69447353      -2.41325072        1 
H      -0.93809477       1.26125587       1.57812805        1 
H       0.96964755       0.21792452       2.13340085        1 
