29
Lattice="0.0 0.0 0.0 0.0 0.0 0.0 0.0 0.0 0.0" Properties=species:S:1:pos:R:3:Z:I:1 pbc="F F F"
C      -1.04275094       0.05782040      -0.84264183        6 
C       0.31665210      -0.72956360      -0.81046171        6 
C      -1.25006732       1.50923665      -0.44771747        6 
C       1.55880203      -0.26614004      -0.07200471        6 
O      -0.22209477       2.09221174       0.16896285        8 
O      -2.27764491       2.08765292      -0.72793208        8 
O       2.65104891      -0.71418625      -0.75329565        8 
O       1.64523637       0.33954283       0.96254962        8 
C       3.92274847      -0.44928264      -0.13822163        6 
C      -0.39604204       3.46856479       0.55008533        6 
C      -2.05544376      -0.91672998      -0.12012415        6 
C      -1.60641796      -1.04929442       1.32259211        6 
C      -0.47164695      -1.75693043       1.32766835        6 
C      -0.13953874      -2.09891052      -0.11732176        6 
C      -1.55880925      -2.25980445      -0.69789771        6 
H       4.07157983       0.62457022      -0.01374504        1 
H      -1.25575369       3.57436784       1.21310781        1 
H       0.17903200      -1.94176607       2.17088114        1 
H       4.66613300      -0.86269195      -0.81665437        1 
H       3.98558428      -0.93255954       0.83864055        1 
H       0.52285764       3.73736405       1.06589332        1 
H      -0.54452578       4.09391961      -0.33188176        1 
H       0.57059088      -2.90828171      -0.27951884        1 
H      -3.09226706      -0.63696984      -0.29352272        1 
H      -2.08384309      -3.11784428      -0.27507365        1 
H      -1.58920243      -2.30804632      -1.79053481        1 
H      -2.07024021      -0.55049063       2.16318596        1 
H      -1.35086604       0.07137905      -1.89279401        1 
H       0.62080325      -0.94705890      -1.83337486        1 
