29
Lattice="0.0 0.0 0.0 0.0 0.0 0.0 0.0 0.0 0.0" Properties=species:S:1:pos:R:3:Z:I:1 pbc="F F F"
C      -1.06582984      -0.09690258      -0.76748442        6 
C       0.39928371      -0.65099827      -0.80990828        6 
C      -1.47919042       1.31364252      -0.38577775        6 
C       1.54834503      -0.03241917      -0.03780881        6 
O      -0.50737651       2.08977975       0.09715916        8 
O      -2.60195728       1.71235774      -0.60778776        8 
O       2.70819498      -0.31617652      -0.69434826        8 
O       1.52255905       0.57087678       1.00143279        8 
C       3.91392879       0.13033805      -0.05216126        6 
C      -0.86752817       3.44838743       0.40572770        6 
C      -1.88513251      -1.23456683      -0.04881672        6 
C      -1.34806487      -1.38063374       1.36243837        6 
C      -0.12864807      -1.92351703       1.27740665        6 
C       0.17955927      -2.12238389      -0.19997288        6 
C      -1.22883263      -2.45689610      -0.72984302        6 
H       3.91308894       1.21705345       0.04861149        1 
H      -1.67005785       3.47132597       1.14412882        1 
H       0.58005333      -2.06372693       2.08181492        1 
H       4.72596936      -0.19261185      -0.70029622        1 
H       4.01172764      -0.31857270       0.93796618        1 
H       0.03733161       3.89788366       0.80782534        1 
H      -1.19484960       3.97022070      -0.49521248        1 
H       0.99351931      -2.80235574      -0.44538617        1 
H      -2.95954743      -1.10453336      -0.15925678        1 
H      -1.60170334      -3.40544418      -0.33980684        1 
H      -1.30826439      -2.44859290      -1.82072257        1 
H      -1.83465528      -1.00128571       2.25109436        1 
H      -1.40785769      -0.12619030      -1.80753184        1 
H       0.72201950      -0.74922777      -1.84543163        1 
