29
Lattice="0.0 0.0 0.0 0.0 0.0 0.0 0.0 0.0 0.0" Properties=species:S:1:pos:R:3:Z:I:1 pbc="F F F"
C      -0.26044369       1.15091327       0.60203497        6 
C       0.72302617      -0.00670352       1.05972460        6 
C      -1.43193651       0.68226703      -0.23328824        6 
C       0.29987998      -1.39440210       0.61358446        6 
O      -2.55296839       0.63110746       0.51172008        8 
O      -1.39888128       0.39725798      -1.40705659        8 
O       1.17054555      -1.98334440      -0.22326492        8 
O      -0.70269551      -1.93843240       1.01596768        8 
C       0.80695548      -3.29592804      -0.69258466        6 
C      -3.71443992       0.07415526      -0.13086891        6 
C       0.71181423       2.15928170      -0.10097989        6 
C       1.28164710       1.49882766      -1.34494986        6 
C       2.12527500       0.54424979      -0.94332064        6 
C       2.11886205       0.53328773       0.57795921        6 
C       1.92492201       2.04302334       0.85330973        6 
H       0.68044841      -3.98079925       0.14689939        1 
H      -3.52007969      -0.96122454      -0.41418006        1 
H       2.62885998      -0.18553678      -1.55959007        1 
H       1.63024976      -3.61329486      -1.32866628        1 
H      -0.12168209      -3.24574807      -1.26259025        1 
H      -4.50752376       0.12377842       0.61185863        1 
H      -3.97807910       0.65259022      -1.01747169        1 
H       2.95982670       0.03717565       1.06055939        1 
H       0.27144520       3.14704757      -0.23498672        1 
H       2.77493788       2.64028556       0.52130268        1 
H       1.68907705       2.27743422       1.89607481        1 
H       0.95543113       1.70342743      -2.35412032        1 
H      -0.67693947       1.61532374       1.49585756        1 
H       0.69837538      -0.05180136       2.15122399        1 
