29
Lattice="0.0 0.0 0.0 0.0 0.0 0.0 0.0 0.0 0.0" Properties=species:S:1:pos:R:3:Z:I:1 pbc="F F F"
C      -0.85292182       0.14932747      -1.03380839        6 
C       0.13983875      -1.01435006      -0.64391344        6 
C      -0.51184887       1.59555098      -0.72853262        6 
C       1.41612538      -0.69800888       0.10878834        6 
O      -0.36997590       1.85359148       0.57711049        8 
O      -0.44431595       2.44794539      -1.58705670        8 
O       2.48663734      -1.13136630      -0.60598874        8 
O       1.52238871      -0.16771042       1.18518812        8 
C       3.77418177      -0.92228573       0.00075185        6 
C      -0.04269616       3.20707491       0.93326311        6 
C      -2.21644904      -0.34715178      -0.39602272        6 
C      -2.06890988      -0.34291061       1.11528139        6 
C      -1.22524557      -1.32689184       1.44206015        6 
C      -0.79987850      -2.00889990       0.15453934        6 
C      -2.09148702      -1.86065816      -0.68117726        6 
H       3.94916608       0.14194040       0.16683950        1 
H      -0.84113306       3.88716226       0.63109874        1 
H      -0.80562331      -1.53082756       2.41655508        1 
H       4.49681585      -1.32306550      -0.70676221        1 
H       3.83810526      -1.44775668       0.95507804        1 
H       0.07107939       3.19854887       2.01476383        1 
H       0.88785345       3.51222402       0.45269444        1 
H      -0.37271434      -3.00719379       0.24666734        1 
H      -3.08203502       0.17247479      -0.80570514        1 
H      -2.92321258      -2.43235376      -0.26701265        1 
H      -1.96476313      -2.10463903      -1.74027808        1 
H      -2.47937298       0.41008642       1.77248884        1 
H      -0.96224184       0.13546319      -2.11812341        1 
H       0.44531765      -1.50607332      -1.56683009        1 
