29
Lattice="0.0 0.0 0.0 0.0 0.0 0.0 0.0 0.0 0.0" Properties=species:S:1:pos:R:3:Z:I:1 pbc="F F F"
C      -0.65759811       0.16560821       0.91456830        6 
C       0.70861888       0.90733074       0.71260050        6 
C      -0.87881166      -1.09872804       0.10785010        6 
C       1.82535337       0.16888917       0.00579573        6 
O      -2.14576671      -1.53851387       0.29127442        8 
O      -0.08222529      -1.67187738      -0.59208013        8 
O       2.25621006      -0.86374202       0.75967258        8 
O       2.34776767       0.51441521      -1.02510162        8 
C       3.22465905      -1.72983403       0.14369186        6 
C      -2.50845903      -2.73824536      -0.41702439        6 
C      -1.69752714       1.28250606       0.46912537        6 
C      -1.54283049       1.38985746      -1.04184430        6 
C      -0.35305544       1.95087669      -1.28452207        6 
C       0.29139535       2.26053220       0.05704069        6 
C      -0.96525597       2.56649948       0.90828953        6 
H       2.77250852      -2.22912125      -0.71499151        1 
H      -1.86660664      -3.56840132      -0.11823695        1 
H       0.13721591       2.07138657      -2.23966248        1 
H       3.49525482      -2.45564691       0.90785660        1 
H       4.10010814      -1.16456544      -0.17816198        1 
H      -3.54227214      -2.93530409      -0.14157742        1 
H      -2.42055859      -2.58718391      -1.49412067        1 
H       1.09220634       2.99752599       0.04443061        1 
H      -2.70201370       1.10663196       0.84690912        1 
H      -1.48455662       3.46898916       0.58242621        1 
H      -0.76749072       2.61997749       1.98323836        1 
H      -2.22507361       0.95828266      -1.76271590        1 
H      -0.81003622      -0.09269956       1.96479905        1 
H       1.10290222       1.11773091       1.71157796        1 
