29
Lattice="0.0 0.0 0.0 0.0 0.0 0.0 0.0 0.0 0.0" Properties=species:S:1:pos:R:3:Z:I:1 pbc="F F F"
C      -0.24737781      -0.88387052       0.73256183        6 
C      -0.85969407       0.56047585       0.84082114        6 
C       1.01553238      -1.09941407      -0.08042665        6 
C      -0.13601626       1.78114959       0.31167197        6 
O       2.00585274      -1.57204453       0.71374256        8 
O       1.15104097      -0.92649290      -1.26557682        8 
O       1.17602129       1.57550614       0.11290501        8 
O      -0.66164531       2.86499324       0.21027717        8 
C       1.94254616       2.70380501      -0.34507988        6 
C       3.25988714      -1.83275727       0.06013761        6 
C      -1.46277361      -1.68628319       0.10376573        6 
C      -1.68632007      -1.14865427      -1.30253894        6 
C      -2.20102131       0.08026070      -1.19112253        6 
C      -2.32193228       0.38900276       0.28952906        6 
C      -2.64144578      -1.01597106       0.84426199        6 
H       1.53148936       3.08563081      -1.28016527        1 
H       3.65419521      -0.91737333      -0.38418691        1 
H      -2.38474753       0.79078499      -1.98566224        1 
H       2.94985107       2.32333929      -0.49840990        1 
H       1.93853617       3.49765993       0.40358443        1 
H       3.92441532      -2.19773281       0.84036126        1 
H       3.13635178      -2.58379546      -0.72186155        1 
H      -2.97694836       1.21150310       0.56669064        1 
H      -1.35464249      -2.76643459       0.19830945        1 
H      -3.60967074      -1.38861260       0.50602270        1 
H      -2.57551623      -1.08805957       1.93420366        1 
H      -1.36342235      -1.64187333      -2.20762428        1 
H      -0.05293807      -1.26031744       1.73571096        1 
H      -0.94165664       0.78602139       1.91118653        1 
