29
Lattice="0.0 0.0 0.0 0.0 0.0 0.0 0.0 0.0 0.0" Properties=species:S:1:pos:R:3:Z:I:1 pbc="F F F"
C       0.82507467      -0.72657818      -0.85380955        6 
C       0.61736772       0.83797496      -0.90295275        6 
C      -0.28457059      -1.72428031      -0.59271019        6 
C      -0.71954479       1.51933497      -0.67833619        6 
O      -1.07596111      -1.42674784       0.44752285        8 
O      -0.39026236      -2.74851626      -1.23070914        8 
O      -1.27514405       1.29051503       0.52074609        8 
O      -1.18777404       2.29808502      -1.48009317        8 
C      -2.51396384       1.96985984       0.78541418        6 
C      -2.10050630      -2.38759759       0.75938235        6 
C       2.02953680      -0.87961775       0.16801978        6 
C       1.55083373      -0.43622860       1.53760895        6 
C       1.38047233       0.88888558       1.49522095        6 
C       1.73934340       1.35326466       0.09481307        6 
C       2.86432730       0.35104371      -0.24785409        6 
H      -2.37897187       3.05171656       0.73979194        1 
H      -1.65689938      -3.34759877       1.02818699        1 
H       0.94574529       1.51569244       2.26048303        1 
H      -2.80335883       1.65999992       1.78751094        1 
H      -3.27354632       1.67584234       0.05906472        1 
H      -2.64295127      -1.96535796       1.60252224        1 
H      -2.76476731      -2.52906672      -0.09460158        1 
H       1.95304153       2.41403604      -0.03031434        1 
H       2.50414716      -1.85796465       0.10469482        1 
H       3.74766240       0.48598126       0.37799731        1 
H       3.15307783       0.35221900      -1.30282522        1 
H       1.28218648      -1.10363111       2.34474120        1 
H       1.19738113      -1.02867314      -1.83315118        1 
H       0.89075463       1.16278913      -1.90675558        1 
