29
Lattice="0.0 0.0 0.0 0.0 0.0 0.0 0.0 0.0 0.0" Properties=species:S:1:pos:R:3:Z:I:1 pbc="F F F"
C      -0.72725801       0.74295266       0.72242508        6 
C       0.75051907       0.23705484       0.87901908        6 
C      -1.67185273      -0.08702957      -0.12725563        6 
C       1.06919916      -1.14415768       0.35000245        6 
O      -2.70070034      -0.54178858       0.62392960        8 
O      -1.56533031      -0.31034378      -1.30644976        8 
O       2.39921193      -1.29169829       0.16109065        8 
O       0.27101633      -2.02451567       0.14622220        8 
C       2.82537405      -2.58261599      -0.31567280        6 
C      -3.63666140      -1.39690529      -0.05633457        6 
C      -0.49751158       2.17819828       0.09110158        6 
C       0.09372096       1.98069365      -1.29819914        6 
C       1.34839718       1.54494732      -1.14779130        6 
C       1.61507490       1.43423220       0.34123998        6 
C       0.76596548       2.61429924       0.86518475        6 
H       2.56275369      -3.36106486       0.40252815        1 
H      -3.12012699      -2.26741287      -0.46284308        1 
H       2.02019974       1.20048824      -1.92234124        1 
H       3.90518697      -2.50905371      -0.42430402        1 
H       2.35512383      -2.80598564      -1.27420265        1 
H      -4.36011261      -1.69542797       0.69953475        1 
H      -4.12995914      -0.85852824      -0.86775607        1 
H       2.65627160       1.38187024       0.65091907        1 
H      -1.37711950       2.81747138       0.15698889        1 
H       1.14633833       3.58121399       0.53209271        1 
H       0.63787841       2.61994514       1.95201931        1 
H      -0.46324555       2.06086533      -2.22019888        1 
H      -1.18031466       0.84982742       1.70668848        1 
H       0.94874942       0.14804526       1.95479888        1 
