29
Lattice="0.0 0.0 0.0 0.0 0.0 0.0 0.0 0.0 0.0" Properties=species:S:1:pos:R:3:Z:I:1 pbc="F F F"
C      -1.11848082       0.04475520      -0.76029296        6 
C       0.25821916      -0.69284717      -0.86178938        6 
C      -1.16035343       1.40750181      -0.10269214        6 
C       1.39276953      -0.15103862      -0.02180521        6 
O      -0.27812744       2.24491518      -0.68697506        8 
O      -1.96381159       1.75322317       0.72796340        8 
O       2.57267522      -0.64527231      -0.46432808        8 
O       1.29981800       0.56698753       0.94262628        8 
C       3.73267232      -0.28873467       0.30991528        6 
C      -0.17681703       3.55669894      -0.10705555        6 
C      -2.07197050      -1.02962693      -0.14307699        6 
C      -1.57225425      -1.34053526       1.25864868        6 
C      -0.42676052      -2.02004087       1.13848121        6 
C      -0.12718830      -2.15205117      -0.34827993        6 
C      -1.56164239      -2.27477502      -0.90691780        6 
H       3.87978784       0.79233272       0.30223677        1 
H       0.15502921       3.47748244       0.92922356        1 
H       0.25117594      -2.30366092       1.93244271        1 
H       4.56865089      -0.79220545      -0.17063718        1 
H       3.62084264      -0.62665591       1.34142992        1 
H       0.56426546       4.08248640      -0.70544719        1 
H      -1.13809819       4.07122539      -0.14552291        1 
H       0.60150656      -2.90713438      -0.63818742        1 
H      -3.12524030      -0.77254725      -0.23467252        1 
H      -2.05177948      -3.19604820      -0.58907492        1 
H      -1.62041210      -2.17974681      -1.99577525        1 
H      -2.02052369      -0.95838379       2.16450668        1 
H      -1.44752031       0.23825082      -1.78790762        1 
H       0.59904621      -0.75462464      -1.89531913        1 
