29
Lattice="0.0 0.0 0.0 0.0 0.0 0.0 0.0 0.0 0.0" Properties=species:S:1:pos:R:3:Z:I:1 pbc="F F F"
C       0.16894630       0.98464248       0.70019779        6 
C       0.86085379      -0.41173414       0.94050293        6 
C      -1.14263696       1.08345153      -0.05722758        6 
C       0.23484920      -1.73410628       0.55441969        6 
O      -2.15248708       1.35891124       0.80781289        8 
O      -1.31846479       0.94872030      -1.24026786        8 
O      -0.65476607      -1.65752771      -0.44325316        8 
O       0.54003618      -2.77128029       1.09886361        8 
C      -1.24687475      -2.89464375      -0.87696089        6 
C      -3.46430818       1.46178343       0.22664610        6 
C       1.31146301       1.78433667      -0.04946555        6 
C       1.50765900       1.13298441      -1.41000652        6 
C       2.09154661      -0.05250665      -1.20890848        6 
C       2.29061286      -0.21527481       0.28505210        6 
C       2.55313932       1.24900691       0.69525786        6 
H      -0.48039891      -3.56886602      -1.26222768        1 
H      -3.74108282       0.52274384      -0.25552961        1 
H       2.27617866      -0.82300683      -1.94568183        1 
H      -1.94365479      -2.61612004      -1.66437661        1 
H      -1.76754360      -3.37983399      -0.04992349        1 
H      -4.13411396       1.67871497       1.05603525        1 
H      -3.49539842       2.26468156      -0.51182919        1 
H       3.00116653      -0.97289634       0.61075619        1 
H       1.14831115       2.86154350      -0.04941396        1 
H       3.48563353       1.63636147       0.28190145        1 
H       2.52810833       1.41453122       1.77614777        1 
H       1.12086010       1.52129970      -2.34022450        1 
H      -0.00165156       1.43885996       1.67579239        1 
H       1.01915972      -0.51633443       2.01571728        1 
