29
Lattice="0.0 0.0 0.0 0.0 0.0 0.0 0.0 0.0 0.0" Properties=species:S:1:pos:R:3:Z:I:1 pbc="F F F"
C      -0.66711675       0.51695416      -0.98977810        6 
C      -0.53792222      -1.00414881      -0.63450597        6 
C       0.37245002       1.52777655      -0.54706829        6 
C       0.75472843      -1.63046547      -0.15655451        6 
O       0.77183159       1.37971486       0.72828092        8 
O       0.72495257       2.45070972      -1.24574193        8 
O       1.83696399      -0.86747569      -0.39728623        8 
O       0.82872157      -2.77851110       0.21531388        8 
C       3.11455277      -1.47418182      -0.13215299        6 
C       1.74723757       2.32357023       1.19687032        6 
C      -2.08946249       0.85442052      -0.34655548        6 
C      -1.93993479       0.76831076       1.16572439        6 
C      -1.77421163      -0.51969424       1.48367429        6 
C      -1.82831882      -1.32133584       0.19600923        6 
C      -2.83672482      -0.47204347      -0.61539899        6 
H       3.19179683      -1.75627786       0.91874963        1 
H       1.36618469       3.34316828       1.12221875        1 
H      -1.52937338      -0.93018416       2.45415801        1 
H       3.85143768      -0.71409979      -0.38207530        1 
H       3.25180392      -2.36163273      -0.75222203        1 
H       1.93330534       2.05715386       2.23516186        1 
H       2.66458408       2.24218286       0.61056057        1 
H      -2.02028674      -2.38776716       0.29025768        1 
H      -2.52343144       1.77030679      -0.74474882        1 
H      -3.83706534      -0.47874673      -0.18005184        1 
H      -2.89295617      -0.74256322      -1.67398941        1 
H      -1.85209765       1.61987942       1.82587999        1 
H      -0.73290959       0.64084298      -2.06973927        1 
H      -0.66738881      -1.53718247      -1.58625788        1 
