29
Lattice="0.0 0.0 0.0 0.0 0.0 0.0 0.0 0.0 0.0" Properties=species:S:1:pos:R:3:Z:I:1 pbc="F F F"
C       0.59450913       0.95942875       0.72797530        6 
C       0.67885641      -0.58724091       0.99147518        6 
C      -0.65259090       1.55258724       0.11237045        6 
C      -0.46301603      -1.48163214       0.56036837        6 
O      -1.76962027       0.97427430       0.59996157        8 
O      -0.66713729       2.51861545      -0.61140661        8 
O      -0.80801715      -1.31970641      -0.73258083        8 
O      -0.97622396      -2.30396161       1.28211167        8 
C      -1.89941278      -2.12716597      -1.20250207        6 
C      -3.02195984       1.50349114       0.13044416        6 
C       1.92048828       1.28153211      -0.03887347        6 
C       1.82562202       0.61343289      -1.39867033        6 
C       1.90877008      -0.70663651      -1.20380298        6 
C       2.05809753      -0.94628494       0.29032367        6 
C       2.87774577       0.30511150       0.68281629        6 
H      -1.66159400      -3.18809751      -1.11225927        1 
H      -3.08490433       1.42116430      -0.95581611        1 
H       1.77078758      -1.48492333      -1.94139112        1 
H      -2.03430814      -1.85227715      -2.24667470        1 
H      -2.80323987      -1.91351975      -0.62910131        1 
H      -3.78838273       0.89593226       0.60684844        1 
H      -3.12783956       2.55045841       0.41829996        1 
H       2.44380920      -1.91923246       0.59231630        1 
H       2.17086501       2.33987347      -0.03540901        1 
H       3.87741030       0.30002927       0.24622440        1 
H       2.94620153       0.46584431       1.76317566        1 
H       1.60394226       1.12961309      -2.32236872        1 
H       0.64221190       1.45022497       1.70787632        1 
H       0.77951326      -0.76969639       2.06027248        1 
