29
Lattice="0.0 0.0 0.0 0.0 0.0 0.0 0.0 0.0 0.0" Properties=species:S:1:pos:R:3:Z:I:1 pbc="F F F"
C      -0.46455127       0.79095704       0.78440437        6 
C       0.99852258       0.27115031       0.96513178        6 
C      -1.58049984      -0.20897302       0.58375884        6 
C       1.44413665      -1.08205233       0.44543865        6 
O      -2.62042232       0.36091954      -0.07002204        8 
O      -1.59124084      -1.34793401       0.97634008        8 
O       0.67429383      -1.57888118      -0.53274891        8 
O       2.48570021      -1.59055431       0.79527613        8 
C       1.09215870      -2.83097582      -1.10065891        6 
C      -3.77631619      -0.47466822      -0.26424807        6 
C      -0.32864780       2.01113828      -0.18617121        6 
C       0.21542329       1.51100558      -1.51251888        6 
C       1.48982046       1.15534281      -1.31920008        6 
C       1.81183583       1.38237274       0.15039453        6 
C       0.95358117       2.63738361       0.41733265        6 
H       2.06311407      -2.72582627      -1.58830557        1 
H      -4.19031667      -0.78462794       0.69667384        1 
H       2.14575885       0.66318016      -2.02507812        1 
H       0.32359568      -3.08922367      -1.82589080        1 
H       1.15942079      -3.59512218      -0.32535338        1 
H      -4.49001864       0.14012204      -0.80854741        1 
H      -3.51231041      -1.36120235      -0.84263899        1 
H       2.86501710       1.40885589       0.42143672        1 
H      -1.22275826       2.62846406      -0.22818431        1 
H       1.30230976       3.50306481      -0.14744424        1 
H       0.86096206       2.89634664       1.47608607        1 
H      -0.37584697       1.37471130      -2.40819936        1 
H      -0.74031476       1.22415339       1.75647324        1 
H       1.29857699       0.30260912       2.01166175        1 
