29
Lattice="0.0 0.0 0.0 0.0 0.0 0.0 0.0 0.0 0.0" Properties=species:S:1:pos:R:3:Z:I:1 pbc="F F F"
C      -0.73302508       0.35869901      -1.06333757        6 
C      -0.25553436      -1.08443816      -0.61515198        6 
C       0.17478425       1.52877032      -0.73375971        6 
C       1.02522068      -1.15725998       0.19014226        6 
O       0.15716712       1.87299859       0.56241428        8 
O       0.83387515       2.11024175      -1.56638672        8 
O       2.03627151      -1.61498375      -0.58654608        8 
O       1.17354706      -0.84792957       1.34611145        8 
C       3.33096018      -1.68501230       0.03817735        6 
C       1.03025846       2.94519423       0.95559908        6 
C      -2.20329728       0.41530335      -0.49192339        6 
C      -2.14263340       0.39657848       1.02567920        6 
C      -1.73585460      -0.81998911       1.39909186        6 
C      -1.52670679      -1.63902823       0.13657219        6 
C      -2.63403065      -1.04583087      -0.76513561        6 
H       3.64846255      -0.69364672       0.36555813        1 
H       0.76123318       3.86812360       0.43926404        1 
H      -1.47484542      -1.14590712       2.39513019        1 
H       4.00204924      -2.06707865      -0.72777335        1 
H       3.30519877      -2.35577858       0.89833554        1 
H       0.89213114       3.04821284       2.02950605        1 
H       2.06656851       2.69334019       0.72629710        1 
H      -1.50421227      -2.72198267       0.25688886        1 
H      -2.79832316       1.20636930      -0.94759166        1 
H      -3.63599842      -1.26167255      -0.39252592        1 
H      -2.55632121      -1.34279454      -1.81587551        1 
H      -2.28446316       1.26072521       1.65766685        1 
H      -0.78054396       0.36352873      -2.15246054        1 
H      -0.08891390      -1.67128258      -1.51864518        1 
