29
Lattice="0.0 0.0 0.0 0.0 0.0 0.0 0.0 0.0 0.0" Properties=species:S:1:pos:R:3:Z:I:1 pbc="F F F"
C       0.84042098      -0.78685973      -0.83166127        6 
C       0.63261836       0.77691523      -0.96531459        6 
C      -0.34582551      -1.67012577      -0.51242209        6 
C      -0.76042645       1.33605613      -0.74283158        6 
O      -0.95729701      -1.35883516       0.64571115        8 
O      -0.70504314      -2.57961825      -1.22383756        8 
O      -1.07993426       1.52905922       0.54798524        8 
O      -1.49488607       1.64495920      -1.65377111        8 
C      -2.40035657       2.03578221       0.80335987        6 
C      -2.10856083      -2.15169345       0.98603055        6 
C       2.06588392      -0.88576369       0.16118523        6 
C       1.64549101      -0.35577398       1.51963911        6 
C       1.48168636       0.96486529       1.40393170        6 
C       1.78078282       1.34150124      -0.03820698        6 
C       2.89118065       0.31346941      -0.35993309        6 
H      -2.53694967       3.01144790       0.33443934        1 
H      -1.83001990      -3.19894158       1.11294720        1 
H       1.08823003       1.64260473       2.14684595        1 
H      -2.47487072       2.11506342       1.88586047        1 
H      -3.15215627       1.34563634       0.41661490        1 
H      -2.47776510      -1.73657269       1.92145071        1 
H      -2.86649683      -2.07667571       0.20455780        1 
H       1.99928246       2.39149184      -0.23001882        1 
H       2.53854034      -1.86726306       0.14275580        1 
H       3.79750423       0.48162528       0.22351161        1 
H       3.14246735       0.24818060      -1.42284983        1 
H       1.40914757      -0.97156153       2.37598397        1 
H       1.17229270      -1.15663996      -1.80206382        1 
H       0.85330867       1.04369841      -1.99900142        1 
