29
Lattice="0.0 0.0 0.0 0.0 0.0 0.0 0.0 0.0 0.0" Properties=species:S:1:pos:R:3:Z:I:1 pbc="F F F"
C      -0.54691880       1.02277178       0.63140015        6 
C       0.65765925       0.04716195       0.97848551        6 
C      -1.76476237       0.53051662      -0.12543862        6 
C       0.66242811      -1.36138260       0.39267327        6 
O      -2.39797970      -0.43887219       0.54885230        8 
O      -2.21407457       1.05828469      -1.11735572        8 
O       1.87876512      -1.68393278      -0.10987180        8 
O      -0.24387287      -2.15410266       0.43767701        8 
C       2.01021312      -3.02084189      -0.62471241        6 
C      -3.57995291      -0.98341858      -0.06029786        6 
C       0.16178116       2.25104579      -0.01370964        6 
C       0.80576525       1.78170347      -1.30744029        6 
C       1.84584079       1.00786645      -0.98112094        6 
C       1.89602061       0.92306168       0.53981219        6 
C       1.39955612       2.33768208       0.90596501        6 
H       1.79541860      -3.75458585       0.15358133        1 
H      -3.34305604      -1.39755369      -1.04133380        1 
H       2.47321176       0.43225522      -1.64619141        1 
H       3.04318574      -3.10297436      -0.95621901        1 
H       1.32564799      -3.17535440      -1.46026841        1 
H      -3.91269177      -1.77069355       0.61206606        1 
H      -4.34668387      -0.21400441      -0.16757678        1 
H       2.83548680       0.58834732       0.97377343        1 
H      -0.48300233       3.12450819      -0.08624462        1 
H       2.09944849       3.11666536       0.59955246        1 
H       1.15238647       2.45988977       1.96520468        1 
H       0.40352310       1.97121259      -2.29253992        1 
H      -0.96530109       1.33854792       1.59340220        1 
H       0.67111265      -0.10902606       2.06109549        1 
