29
Lattice="0.0 0.0 0.0 0.0 0.0 0.0 0.0 0.0 0.0" Properties=species:S:1:pos:R:3:Z:I:1 pbc="F F F"
C      -0.79647632       0.47549687       0.96293766        6 
C       0.79186373       0.58661727       0.92322689        6 
C      -1.43759728      -0.83703250       0.54552483        6 
C       1.58595519      -0.63883202       0.50446010        6 
O      -2.28748133      -0.68833645      -0.49884888        8 
O      -1.26411195      -1.89115892       1.10042539        8 
O       2.26477436      -0.45015895      -0.65186031        8 
O       1.63621166      -1.66379326       1.13343960        8 
C       3.04077172      -1.57110370      -1.11248467        6 
C      -2.97391972      -1.88051832      -0.92048450        6 
C      -1.23611270       1.75936190       0.17460604        6 
C      -0.80486879       1.58808589      -1.27497641        6 
C       0.52763238       1.67328127      -1.31269120        6 
C       1.01287299       1.90697426       0.10915058        6 
C      -0.15732996       2.75521551       0.66051296        6 
H       3.82616512      -1.81430191      -0.39487750        1 
H      -3.59849843      -2.26708419      -0.11340044        1 
H       1.17383581       1.49786476      -2.16004685        1 
H       3.47211094      -1.25503213      -2.05998263        1 
H       2.40239266      -2.44490475      -1.25079755        1 
H      -3.58613212      -1.57827167      -1.76760216        1 
H      -2.25859645      -2.64923998      -1.21634096        1 
H       2.01900306       2.30972017       0.21356216        1 
H      -2.27859764       2.02664738       0.33851160        1 
H      -0.23681651       3.72729473       0.17167936        1 
H      -0.13481959       2.88818206       1.74659029        1 
H      -1.47122786       1.32989524      -2.08493428        1 
H      -1.09380893       0.58131663       2.00993399        1 
H       1.11600408       0.75323835       1.95389401        1 
