29
Lattice="0.0 0.0 0.0 0.0 0.0 0.0 0.0 0.0 0.0" Properties=species:S:1:pos:R:3:Z:I:1 pbc="F F F"
C      -0.80669205       0.29833261       0.72371357        6 
C       0.75461034       0.36425983       0.79203354        6 
C      -1.53317176      -0.91751001       0.18616902        6 
C       1.62969344      -0.56816133      -0.02399203        6 
O      -2.86686775      -0.74293656       0.40664387        8 
O      -1.08879882      -1.89033131      -0.35988491        8 
O       2.77500547      -0.81588230       0.67043792        8 
O       1.42322959      -1.01107926      -1.12076216        8 
C       3.73976496      -1.64391149      -0.00179114        6 
C      -3.72535046      -1.79188215      -0.07284180        6 
C      -1.21981620       1.67769385       0.07723720        6 
C      -0.65436335       1.71957146      -1.32806340        6 
C       0.67347130       1.83632583      -1.22574131        6 
C       1.01940536       1.85151792       0.25510684        6 
C      -0.21386196       2.58957214       0.81416496        6 
H       3.31145016      -2.62206912      -0.22686722        1 
H      -3.48984302      -2.73717563       0.41913202        1 
H       1.39457732       1.77904363      -2.02904563        1 
H       4.57404439      -1.73996895       0.68993204        1 
H       4.06516683      -1.17602628      -0.93273747        1 
H      -4.73654195      -1.47490615       0.17425694        1 
H      -3.61472464      -1.91507848      -1.15160326        1 
H       2.00515014       2.22695452       0.52456829        1 
H      -2.27979827       1.89246644       0.19135097        1 
H      -0.26339601       3.62541599       0.47494710        1 
H      -0.29976683       2.54897065       1.90384974        1 
H      -1.22673598       1.55700336      -2.23165965        1 
H      -1.15480642       0.35273045       1.76097650        1 
H       1.08129934       0.29930984       1.82871593        1 
