29
Lattice="0.0 0.0 0.0 0.0 0.0 0.0 0.0 0.0 0.0" Properties=species:S:1:pos:R:3:Z:I:1 pbc="F F F"
C      -0.76233268       0.80620570      -0.88449240        6 
C      -0.69603901      -0.77661541      -0.92830214        6 
C       0.51198059       1.57794852      -0.60674350        6 
C       0.63867555      -1.45608487      -0.68935568        6 
O       0.96602128       1.43936686       0.65178886        8 
O       1.05854182       2.27277212      -1.43214404        8 
O       1.00960000      -1.49637991       0.60240030        8 
O       1.28683839      -1.96494394      -1.57515886        8 
C       2.26118966      -2.14790602       0.88010127        6 
C       2.18356455       2.13777862       0.96631633        6 
C      -1.97430786       1.06516516       0.09419743        6 
C      -1.59814938       0.58668668       1.48505954        6 
C      -1.54092014      -0.74716252       1.45044374        6 
C      -1.87784019      -1.18666093       0.03513647        6 
C      -2.90100441      -0.09181742      -0.35067557        6 
H       2.22799127      -3.19241027       0.56591655        1 
H       2.04905820       3.21480728       0.85418451        1 
H      -1.20257879      -1.40807730       2.23485673        1 
H       2.39168521      -2.07449106       1.95766524        1 
H       3.07761599      -1.64558576       0.35866039        1 
H       2.40170699       1.88343453       2.00131926        1 
H       2.99168475       1.81035151       0.31026033        1 
H      -2.18283638      -2.22498408      -0.09255966        1 
H      -2.36619307       2.07886649       0.01602250        1 
H      -3.81434102      -0.14647696       0.24303339        1 
H      -3.15195645      -0.07477980      -1.41549042        1 
H      -1.31392630       1.23217457       2.30333848        1 
H      -1.05099317       1.14492353      -1.87970202        1 
H      -0.95597192      -1.08062969      -1.94251555        1 
