29
Lattice="0.0 0.0 0.0 0.0 0.0 0.0 0.0 0.0 0.0" Properties=species:S:1:pos:R:3:Z:I:1 pbc="F F F"
C      -0.61059237       0.65953009      -0.97940219        6 
C      -0.65704429      -0.91493681      -0.80675623        6 
C       0.69236074       1.36901334      -0.67072824        6 
C       0.44601491      -1.62587679      -0.03972654        6 
O       0.76887088       1.79446157       0.60830403        8 
O       1.58002355       1.52341267      -1.47267698        8 
O       1.66782063      -1.17535664      -0.37011870        8 
O       0.26076637      -2.53536610       0.73333931        8 
C       2.78550390      -1.82176597       0.26450351        6 
C       2.00775360       2.41777939       0.98836177        6 
C      -1.91491025       1.11827647      -0.23871560        6 
C      -1.81967531       0.72596556       1.22850104        6 
C      -1.91865063      -0.60496935       1.30100196        6 
C      -2.05717003      -1.12945720      -0.12219242        6 
C      -2.87404145       0.01728105      -0.75661311        6 
H       2.72059934      -1.71466916       1.34845270        1 
H       2.19622383       3.30299780       0.37891429        1 
H      -1.79219939      -1.23095652       2.17243968        1 
H       3.66647997      -1.31555958      -0.12343389        1 
H       2.80700946      -2.88246773       0.00994780        1 
H       1.88738575       2.69020252       2.03467056        1 
H       2.83535044       1.71722134       0.86555433        1 
H      -2.43622267      -2.14349167      -0.22875183        1 
H      -2.18200114       2.15367162      -0.44745206        1 
H      -3.87594059       0.09769224      -0.33267069        1 
H      -2.93814447      -0.03215283      -1.84818335        1 
H      -1.60246526       1.41344687       2.03301143        1 
H      -0.74890416       0.85610329      -2.04477693        1 
H      -0.64759363      -1.36582677      -1.80438520        1 
