29
Lattice="0.0 0.0 0.0 0.0 0.0 0.0 0.0 0.0 0.0" Properties=species:S:1:pos:R:3:Z:I:1 pbc="F F F"
C      -0.49664723       0.85430527      -0.93954955        6 
C      -0.92063210      -0.65997075      -0.81048468        6 
C       0.92135351       1.35249529      -0.71910863        6 
C       0.02573524      -1.79408415      -0.47707277        6 
O       1.37605400       1.22314767       0.53611069        8 
O       1.53409803       1.94977032      -1.57717923        8 
O       1.05431217      -1.46385447       0.31589435        8 
O      -0.16891898      -2.92159026      -0.87311338        8 
C       1.94396528      -2.53541928       0.67862633        6 
C       2.69412522       1.73723753       0.78430332        6 
C      -1.54727999       1.56579412       0.01727653        6 
C      -1.27117617       1.12049237       1.44431169        6 
C      -1.62594564      -0.16441367       1.54403574        6 
C      -2.14860995      -0.59951785       0.18838997        6 
C      -2.79975691       0.71505744      -0.29571450        6 
H       1.41214684      -3.29538019       1.25321052        1 
H       2.73004101       2.81241074       0.60086379        1 
H      -1.46541774      -0.82424807       2.38612576        1 
H       2.72037329      -2.07112970       1.28289126        1 
H       2.37144893      -2.99563816      -0.21324254        1 
H       2.89660596       1.51862543       1.83073696        1 
H       3.42320419       1.24263815       0.14027213        1 
H      -2.74968785      -1.50667366       0.15720240        1 
H      -1.61237014       2.63955311      -0.15430942        1 
H      -3.65951953       1.00065578       0.31218250        1 
H      -3.07983072       0.70697106      -1.35310540        1 
H      -0.76515881       1.71703244       2.18919317        1 
H      -0.71185813       1.16091211      -1.96276673        1 
H      -1.32555813      -0.96141254      -1.77815186        1 
