29
Lattice="0.0 0.0 0.0 0.0 0.0 0.0 0.0 0.0 0.0" Properties=species:S:1:pos:R:3:Z:I:1 pbc="F F F"
C      -0.20282377       0.91677461       0.83063198        6 
C       1.06402135       0.00450503       0.97109421        6 
C      -1.56046398       0.26631310       0.68338882        6 
C       1.12031929      -1.38006347       0.34196687        6 
O      -2.29559227       0.85406054      -0.28746628        8 
O      -1.96589211      -0.63862434       1.36858838        8 
O      -0.02001894      -1.77899746      -0.23581515        8 
O       2.15112825      -2.01094260       0.27706652        8 
C       0.01436247      -3.04588250      -0.91607273        6 
C      -3.62214408       0.32828680      -0.47590634        6 
C       0.24233717       2.04145309      -0.15868973        6 
C       0.62847617       1.39767067      -1.47894214        6 
C       1.77156461       0.73106563      -1.28585331        6 
C       2.14415156       0.88080651       0.18511389        6 
C       1.64433615       2.31573275       0.43945475        6 
H       0.70417499      -3.00481568      -1.76090561        1 
H      -4.21258144       0.44154433       0.43470254        1 
H       2.28075271       0.07974993      -1.98367563        1 
H      -1.00392586      -3.21606870      -1.25844281        1 
H       0.32682666      -3.83680083      -0.23357830        1 
H      -4.05307884       0.91149626      -1.28696612        1 
H      -3.57767864      -0.72850437      -0.74350794        1 
H       3.16679185       0.63064881       0.45471117        1 
H      -0.45875956       2.87147056      -0.21024540        1 
H       2.20979391       3.05394321      -0.13136651        1 
H       1.62207637       2.60221945       1.49491554        1 
H       0.01483518       1.40768765      -2.36925717        1 
H      -0.30595403       1.40589157       1.80851230        1 
H       1.35232295      -0.10977204       2.01656268        1 
