29
Lattice="0.0 0.0 0.0 0.0 0.0 0.0 0.0 0.0 0.0" Properties=species:S:1:pos:R:3:Z:I:1 pbc="F F F"
C      -0.74658215       0.22960792       1.02278688        6 
C       0.63576626       0.90181868       0.66744997        6 
C      -0.86860338      -1.21844427       0.59398838        6 
C       1.58048756       0.05176810      -0.15574986        6 
O      -1.95587274      -1.45913003      -0.15931314        8 
O      -0.09812147      -2.08030633       0.94616709        8 
O       2.75613360      -0.11809020       0.48278434        8 
O       1.34817525      -0.40326106      -1.24992668        8 
C       3.71783002      -0.95316951      -0.18911340        6 
C      -2.12397183      -2.81780217      -0.60743263        6 
C      -1.79331317       1.26206033       0.47067250        6 
C      -1.68398407       1.27087093      -1.04452279        6 
C      -0.51296548       1.83036743      -1.36226069        6 
C       0.17684194       2.22004005      -0.06493587        6 
C      -1.05405849       2.58008314       0.80156707        6 
H       3.30744937      -1.95335005      -0.33462228        1 
H      -2.23503700      -3.49038921       0.24451104        1 
H      -0.06107342       1.88849375      -2.34212357        1 
H       4.58359280      -0.98448327       0.46849080        1 
H       3.98427137      -0.52742014      -1.15779705        1 
H      -3.02800669      -2.81224456      -1.21243314        1 
H      -1.26298600      -3.12522472      -1.20190965        1 
H       0.97179558       2.96128554      -0.14196088        1 
H      -2.79178601       1.12619595       0.88287200        1 
H      -1.58059969       3.45991103       0.42934969        1 
H      -0.82374023       2.70598250       1.86406320        1 
H      -2.38032401       0.78451987      -1.71193987        1 
H      -0.82187850       0.19131738       2.11368902        1 
H       1.15372553       1.16858962       1.58736421        1 
