29
Lattice="0.0 0.0 0.0 0.0 0.0 0.0 0.0 0.0 0.0" Properties=species:S:1:pos:R:3:Z:I:1 pbc="F F F"
C      -0.69943190       0.58844536       0.75034742        6 
C       0.85211899       0.52522660       0.96838466        6 
C      -1.44534636      -0.65242718       0.31206887        6 
C       1.64144072      -0.72027450       0.60304432        6 
O      -2.77213970      -0.37472064       0.26136245        8 
O      -0.99493497      -1.73658189       0.04227630        8 
O       1.56886665      -1.04658367      -0.69562159        8 
O       2.36411995      -1.28723442       1.39122098        8 
C       2.22718764      -2.26156439      -1.08689359        6 
C      -3.63184379      -1.45978998      -0.13162957        6 
C      -0.90105057       1.87078876      -0.14641748        6 
C      -0.26150608       1.60120379      -1.49442315        6 
C       1.06260357       1.57317001      -1.31313358        6 
C       1.33172085       1.81134646       0.16465782        6 
C       0.17244850       2.78018220       0.49327443        6 
H       3.28807210      -2.22793920      -0.83513731        1 
H      -3.53503499      -2.29611430       0.56257220        1 
H       1.81485947       1.30846208      -2.04187913        1 
H       2.08718478      -2.33148608      -2.16379982        1 
H       1.75931269      -3.11216936      -0.58869555        1 
H      -4.64100335      -1.05440275      -0.10355224        1 
H      -3.38299012      -1.79978451      -1.13818826        1 
H       2.34123533       2.12236135       0.42952297        1 
H      -1.93014776       2.22336369      -0.15164325        1 
H       0.27043518       3.73549211      -0.02448164        1 
H       0.02705645       2.95011995       1.56411999        1 
H      -0.80401698       1.36346152      -2.40006091        1 
H      -1.14921567       0.82557352       1.72052711        1 
H       1.06595235       0.67779257       2.02541085        1 
