29
Lattice="0.0 0.0 0.0 0.0 0.0 0.0 0.0 0.0 0.0" Properties=species:S:1:pos:R:3:Z:I:1 pbc="F F F"
C      -0.18365273       1.17351364       0.60065239        6 
C       0.71262986      -0.05414898       1.06302524        6 
C      -1.38453460       0.79339238      -0.23895963        6 
C       0.19785049      -1.40810449       0.60895129        6 
O      -2.49162895       0.73151717       0.52478764        8 
O      -1.38403346       0.58910259      -1.43004763        8 
O       1.03286723      -2.05253837      -0.22472145        8 
O      -0.84307391      -1.88451389       0.99904912        8 
C       0.58279853      -3.33443500      -0.70297811        6 
C      -3.68253672       0.24953366      -0.12356743        6 
C       0.86106235       2.11113060      -0.09171271        6 
C       1.38760582       1.41607992      -1.33556043        6 
C       2.15905584       0.40229144      -0.93455425        6 
C       2.14551214       0.38619310       0.58723702        6 
C       2.05840141       1.90477138       0.86716473        6 
H       0.41389988      -4.01630714       0.13157575        1 
H      -3.53280324      -0.77916204      -0.45460407        1 
H       2.61347287      -0.35905057      -1.55089937        1 
H       1.38177842      -3.70025837      -1.34405958        1 
H      -0.34224429      -3.21961179      -1.26962660        1 
H      -4.46277890       0.29579714       0.63278390        1 
H      -3.93541620       0.87647633      -0.97980703        1 
H       2.94725646      -0.17002523       1.07098895        1 
H       0.49420928       3.12858284      -0.22473945        1 
H       2.95062440       2.44036296       0.54071676        1 
H       1.83592356       2.15241468       1.91000554        1 
H       1.08302219       1.64959310      -2.34512163        1 
H      -0.57122010       1.66128823       1.49534648        1 
H       0.67942906      -0.09951059       2.15409650        1 
