29
Lattice="0.0 0.0 0.0 0.0 0.0 0.0 0.0 0.0 0.0" Properties=species:S:1:pos:R:3:Z:I:1 pbc="F F F"
C      -0.94172831       0.69682791       0.84943423        6 
C       0.62788867       0.57795768       0.98773168        6 
C      -1.70116129      -0.56855365       0.50736293        6 
C       1.23536167      -0.74407059       0.55345856        6 
O      -1.61545746      -0.89462843      -0.79858761        8 
O      -2.31349777      -1.22014970       1.31683713        8 
O       2.38255116      -0.57571538      -0.13670282        8 
O       0.80371130      -1.82994544       0.85533415        8 
C       3.05482104      -1.78167085      -0.54547851        6 
C      -2.20143515      -2.15622928      -1.16801784        6 
C      -1.10193955       1.93667153      -0.10262510        6 
C      -0.46540422       1.62268505      -1.44619965        6 
C       0.85885848       1.58759064      -1.27131374        6 
C       1.13020298       1.84852650       0.20293907        6 
C      -0.00953076       2.84506014       0.51248409        6 
H       3.31589543      -2.38768151       0.32310673        1 
H      -3.27000691      -2.16351903      -0.94841188        1 
H       1.60970198       1.30223044      -1.99396476        1 
H       3.94961667      -1.45082577      -1.06807597        1 
H       2.41504350      -2.36437178      -1.21012602        1 
H      -2.02912395      -2.25326959      -2.23811535        1 
H      -1.71332685      -2.96510597      -0.62259334        1 
H       2.14470781       2.14447510       0.46170665        1 
H      -2.12067405       2.32238203      -0.12816916        1 
H       0.10506975       3.78713605      -0.02574132        1 
H      -0.15240644       3.04215700       1.57923143        1 
H      -1.01568871       1.37460879      -2.34241354        1 
H      -1.33678458       0.97408028       1.82723606        1 
H       0.88560262       0.66475304       2.04787590        1 
