29
Lattice="0.0 0.0 0.0 0.0 0.0 0.0 0.0 0.0 0.0" Properties=species:S:1:pos:R:3:Z:I:1 pbc="F F F"
C      -0.90409173       0.45872967      -0.86223387        6 
C      -0.12421412      -0.90284118      -0.73900554        6 
C      -0.35011963       1.80225457      -0.42919188        6 
C       1.17950621      -1.00838619       0.03138477        6 
O       0.84541051       1.75126953       0.16818491        8 
O      -0.92861129       2.83645173      -0.67601460        8 
O       2.15669896      -1.46961218      -0.79177430        8 
O       1.36910782      -0.76033681       1.19380693        8 
C       3.45280268      -1.63742680      -0.19225478        6 
C       1.40817118       3.00598384       0.59181712        6 
C      -2.31219434       0.13819347      -0.22879017        6 
C      -2.09016287      -0.11970016       1.24933735        6 
C      -1.44253309      -1.28460397       1.36001424        6 
C      -1.22374149      -1.82425452      -0.04727105        6 
C      -2.49909400      -1.30500618      -0.74466421        6 
H       3.81834607      -0.68510441       0.19542982        1 
H       0.71988921       3.52427231       1.26033086        1 
H      -1.02560722      -1.71831710       2.25706745        1 
H       4.09769326      -1.99947873      -0.99021746        1 
H       3.40831236      -2.36105874       0.62349970        1 
H       2.32611520       2.74497139       1.11333515        1 
H       1.61765772       3.64064897      -0.27094156        1 
H      -0.99979183      -2.88732834      -0.13156601        1 
H      -3.06386636       0.87808730      -0.49528491        1 
H      -3.40540983      -1.77318850      -0.35765709        1 
H      -2.47355918      -1.39154767      -1.83521244        1 
H      -2.31262294       0.58464144       2.03977842        1 
H      -1.07884174       0.61751527      -1.93130184        1 
H       0.06878629      -1.27896348      -1.74251847        1 
