29
Lattice="0.0 0.0 0.0 0.0 0.0 0.0 0.0 0.0 0.0" Properties=species:S:1:pos:R:3:Z:I:1 pbc="F F F"
C      -0.39219773      -0.96814091       0.69232323        6 
C      -0.74003394       0.55298733       0.94479517        6 
C       0.88117092      -1.29208040      -0.06012913        6 
C       0.07427053       1.64825407       0.27752001        6 
O       1.91026058      -1.44931814       0.80111186        8 
O       0.98002526      -1.46841620      -1.24992139        8 
O       1.37100100       1.32613875       0.12103727        8 
O      -0.38143945       2.72153214      -0.03740983        8 
C       2.19562055       2.31129900      -0.52953058        6 
C       3.19189656      -1.70277517       0.20521181        6 
C      -1.69927941      -1.50133514       0.00954787        6 
C      -1.87972255      -0.76562696      -1.30939934        6 
C      -2.22368700       0.49557949      -1.02666398        6 
C      -2.24788765       0.63143075       0.48798332        6 
C      -2.74862862      -0.77406856       0.88212600        6 
H       1.81389485       2.52108117      -1.52938989        1 
H       3.46699814      -0.88393165      -0.46176821        1 
H      -2.33446717       1.31981138      -1.71695475        1 
H       3.18730551       1.86789720      -0.58397058        1 
H       2.21751582       3.23390712       0.05164401        1 
H       3.89184194      -1.77072643       1.03546624        1 
H       3.17621301      -2.63543738      -0.36084661        1 
H      -2.77265008       1.49482872       0.88962015        1 
H      -1.74490717      -2.58898690      -0.03448103        1 
H      -3.77068724      -0.95832805       0.54841063        1 
H      -2.66151097      -0.99539467       1.95046049        1 
H      -1.65272031      -1.18500459      -2.27850921        1 
H      -0.28855247      -1.44210303       1.67030182        1 
H      -0.66437613       0.75249192       2.01875913        1 
