29
Lattice="0.0 0.0 0.0 0.0 0.0 0.0 0.0 0.0 0.0" Properties=species:S:1:pos:R:3:Z:I:1 pbc="F F F"
C      -0.57165234       0.18565242       0.88718190        6 
C       0.83690814       0.78107436       0.58185269        6 
C      -1.06957923      -0.97129942       0.03177819        6 
C       1.99274037      -0.05145391       0.06823133        6 
O      -2.37857442      -1.19524273       0.32619816        8 
O      -0.45841018      -1.64906611      -0.75123833        8 
O       1.91821722      -1.32705910       0.48047853        8 
O       2.98574001       0.42782460      -0.42953857        8 
C       3.02122290      -2.17893209       0.13080762        6 
C      -3.00943689      -2.27293684      -0.38562539        6 
C      -1.49623136       1.44911534       0.54066012        6 
C      -1.49036048       1.51229827      -0.98402860        6 
C      -0.26685592       1.89714999      -1.36422321        6 
C       0.54817669       2.14954584      -0.10868328        6 
C      -0.56637405       2.63930025       0.85109802        6 
H       3.13037934      -2.22749398      -0.95355307        1 
H      -2.48618450      -3.21287939      -0.20323440        1 
H       0.12566381       1.93690282      -2.37146736        1 
H       2.76545059      -3.15842648       0.52892771        1 
H       3.94908586      -1.81110380       0.57222618        1 
H      -4.02612284      -2.31968736      -0.00065924        1 
H      -3.01583864      -2.07091050      -1.45838096        1 
H       1.43731283       2.76527904      -0.21954068        1 
H      -2.46993198       1.41468013       1.02201873        1 
H      -1.00299909       3.58938005       0.53952978        1 
H      -0.24997249       2.70258491       1.89612230        1 
H      -2.29659977       1.16754266      -1.61815903        1 
H      -0.67439504      -0.10377906       1.93374504        1 
H       1.23974461       1.04905159       1.56917418        1 
