29
Lattice="0.0 0.0 0.0 0.0 0.0 0.0 0.0 0.0 0.0" Properties=species:S:1:pos:R:3:Z:I:1 pbc="F F F"
C      -0.90561302       0.16750105      -0.98048001        6 
C       0.16100264      -0.95568671      -0.68465526        6 
C      -0.71821336       1.63268668      -0.64310218        6 
C       1.46285826      -0.67030198       0.04089204        6 
O      -0.07335505       1.85614451       0.50532821        8 
O      -1.18560427       2.51388503      -1.33114641        8 
O       2.50706567      -1.03798247      -0.75002908        8 
O       1.61441330      -0.21898252       1.14600668        8 
C       3.81608173      -0.86321849      -0.18032477        6 
C       0.06638250       3.22871320       0.91048913        6 
C      -2.21705726      -0.41471848      -0.30081288        6 
C      -1.98493581      -0.43459734       1.19770411        6 
C      -1.07999078      -1.38515347       1.45218563        6 
C      -0.69771200      -2.01977225       0.12553795        6 
C      -2.03711029      -1.91057178      -0.63530922        6 
H       3.99345655       0.18776515       0.05400491        1 
H      -0.91392925       3.67858264       1.07725264        1 
H      -0.59570238      -1.59012041       2.39576293        1 
H       4.51277330      -1.20866887      -0.94116537        1 
H       3.91948803      -1.45338352       0.73190752        1 
H       0.63874658       3.19486968       1.83448502        1 
H       0.59617519       3.80053957       0.14712267        1 
H      -0.22210854      -2.99908501       0.17117183        1 
H      -3.11950650       0.08015022      -0.65613383        1 
H      -2.81841840      -2.53213751      -0.19526556        1 
H      -1.95611525      -2.11790095      -1.70633791        1 
H      -2.38887435       0.28635328       1.89525429        1 
H      -1.07834707       0.17518675      -2.05754176        1 
H       0.43724769      -1.39892965      -1.64059249        1 
