29
Lattice="0.0 0.0 0.0 0.0 0.0 0.0 0.0 0.0 0.0" Properties=species:S:1:pos:R:3:Z:I:1 pbc="F F F"
C      -0.49057745       0.90498062       0.66417558        6 
C       0.85547554       0.18518621       1.06392399        6 
C      -1.52041758       0.08526764      -0.07781110        6 
C       0.94329864      -1.29705577       0.74807411        6 
O      -2.74886020       0.28327197       0.45616960        8 
O      -1.32750255      -0.61926846      -1.03847106        8 
O       1.39242856      -1.56771787      -0.48455381        8 
O       0.68984617      -2.15277890       1.56656956        8 
C       1.38294840      -2.95089567      -0.87648042        6 
C      -3.83617521      -0.40291998      -0.19152015        6 
C       0.01456235       2.16434580      -0.14556499        6 
C       0.65993107       1.67937986      -1.42932003        6 
C       1.80238435       1.07043034      -1.09897117        6 
C       1.93937709       1.13116298       0.41321696        6 
C       1.27484457       2.50203076       0.68601286        6 
H       1.98880424      -3.55017415      -0.19542954        1 
H      -3.67198022      -1.48118010      -0.17106941        1 
H       2.46136964       0.52030442      -1.75382658        1 
H       1.79785796      -2.96873805      -1.88196671        1 
H       0.35842454      -3.32561424      -0.88209414        1 
H      -4.72488754      -0.13984941       0.37788975        1 
H      -3.93264045      -0.07398497      -1.22769417        1 
H       2.93901876       0.96879792       0.81461566        1 
H      -0.75029052       2.93449236      -0.24088830        1 
H       1.83989287       3.33260411       0.26132262        1 
H       1.06836924       2.69240658       1.74346661        1 
H       0.19898729       1.71771117      -2.40653943        1 
H      -0.97402520       1.26125708       1.57347993        1 
H       0.94581295       0.23313530       2.14933164        1 
