29
Lattice="0.0 0.0 0.0 0.0 0.0 0.0 0.0 0.0 0.0" Properties=species:S:1:pos:R:3:Z:I:1 pbc="F F F"
C      -0.80796737       0.80581927       0.66227217        6 
C       0.62094752       0.22334357       0.89887782        6 
C      -1.88661625      -0.05948480       0.05089030        6 
C       1.03015221      -0.95474981       0.03555105        6 
O      -1.94269856      -1.26077957       0.66040760        8 
O      -2.72426754       0.33505718      -0.72425136        8 
O       2.29632990      -1.32376266       0.34648732        8 
O       0.37517134      -1.51065255      -0.80900694        8 
C       2.83571714      -2.42325819      -0.40942702        6 
C      -2.94048193      -2.17265037       0.17270699        6 
C      -0.55301362       2.19207570      -0.00424176        6 
C       0.17607231       1.96154024      -1.31604959        6 
C       1.41940763       1.56265746      -1.02576953        6 
C       1.52845864       1.47536471       0.49154094        6 
C       0.62176242       2.65797288       0.89063279        6 
H       2.24230139      -3.32496221      -0.24912257        1 
H      -2.75277901      -2.40367834      -0.87695478        1 
H       2.17425603       1.21582703      -1.71948924        1 
H       3.84883770      -2.56144610      -0.03813121        1 
H       2.84534244      -2.18704256      -1.47469605        1 
H      -2.83789818      -3.06810136       0.78215648        1 
H      -3.93910943      -1.74604603       0.27935332        1 
H       2.53192642       1.42928728       0.90776171        1 
H      -1.44208405       2.81689488      -0.04764783        1 
H       1.03589849       3.61703357       0.57599998        1 
H       0.37644723       2.69137902       1.95629205        1 
H      -0.28863362       2.01345752      -2.29096789        1 
H      -1.21778977       1.00789754       1.66006792        1 
H       0.78483610      -0.04517927       1.94298631        1 
