29
Lattice="0.0 0.0 0.0 0.0 0.0 0.0 0.0 0.0 0.0" Properties=species:S:1:pos:R:3:Z:I:1 pbc="F F F"
C      -0.74277582      -0.18160735      -0.84044340        6 
C       0.67040871      -0.86573586      -0.78459590        6 
C      -0.92905447       1.10801433      -0.07515282        6 
C       1.76390398      -0.14291436      -0.01945675        6 
O      -2.10204599       1.68295706      -0.43180918        8 
O      -0.19210201       1.57711969       0.75571431        8 
O       2.25377628       0.87458363      -0.76126596        8 
O       2.17829439      -0.43152492       1.07436678        8 
C       3.19203979       1.73559729      -0.09141946        6 
C      -2.44247796       2.90189834       0.25386414        6 
C      -1.69755831      -1.33114083      -0.30794217        6 
C      -1.36257423      -1.54223677       1.15965279        6 
C      -0.15133335      -2.10513140       1.21817024        6 
C       0.34022575      -2.28855434      -0.21070075        6 
C      -1.00110498      -2.55930187      -0.93333311        6 
H       2.70348019       2.22324551       0.75371385        1 
H      -1.68858022       3.66811514       0.06658335        1 
H       0.44530232      -2.29064133       2.09838947        1 
H       3.49775147       2.46857911      -0.83514090        1 
H       4.05151206       1.16544152       0.26356027        1 
H      -3.40486708       3.20411690      -0.15333971        1 
H      -2.51715080       2.72803825       1.32844415        1 
H       1.14504177      -3.00749220      -0.35522384        1 
H      -2.74281606      -1.15553350      -0.55542921        1 
H      -1.46136296      -3.49934715      -0.62568453        1 
H      -0.93269796      -2.51868127      -2.02497645        1 
H      -1.95485112      -1.17416914       1.98693260        1 
H      -1.00891501       0.02919920      -1.87838337        1 
H       1.02953217      -0.96358488      -1.81184181        1 
