29
Lattice="0.0 0.0 0.0 0.0 0.0 0.0 0.0 0.0 0.0" Properties=species:S:1:pos:R:3:Z:I:1 pbc="F F F"
C      -0.68911854       0.79295910       0.75962881        6 
C       0.75819807       0.18682838       0.82650397        6 
C      -1.73673214       0.05582538      -0.05782146        6 
C       1.00740269      -1.13812900       0.14333328        6 
O      -2.48563022      -0.72975397       0.74976140        8 
O      -1.90680169       0.13236491      -1.24731450        8 
O       2.28069990      -1.53636727       0.37639186        8 
O       0.23137126      -1.77612652      -0.52202536        8 
C       2.66997631      -2.78564594      -0.22486130        6 
C      -3.43210742      -1.58228014       0.07945179        6 
C      -0.40645278       2.23786563       0.19236079        6 
C       0.11268761       2.08254166      -1.23060162        6 
C       1.34616789       1.57157324      -1.15953811        6 
C       1.66901881       1.36896627       0.30870604        6 
C       0.91242164       2.56423663       0.92938278        6 
H       2.05435849      -3.60149688       0.15760684        1 
H      -2.90751051      -2.25184526      -0.60368297        1 
H       1.96356752       1.23427968      -1.98162666        1 
H       3.71157038      -2.92907261       0.05378046        1 
H       2.56441121      -2.73721830      -1.30967601        1 
H      -3.92721755      -2.14433110       0.86857840        1 
H      -4.15556266      -0.98790729      -0.48085728        1 
H       2.71656641       1.23625583       0.57042974        1 
H      -1.24398168       2.92108872       0.32691010        1 
H       1.33365667       3.52371313       0.62585144        1 
H       0.83354516       2.51918450       2.01987066        1 
H      -0.47708242       2.24478908      -2.11999605        1 
H      -1.07568587       0.87066881       1.77613624        1 
H       1.01047934       0.01578060       1.87752006        1 
