29
Lattice="0.0 0.0 0.0 0.0 0.0 0.0 0.0 0.0 0.0" Properties=species:S:1:pos:R:3:Z:I:1 pbc="F F F"
C      -0.40193945      -0.94365292       0.69822104        6 
C      -0.73834274       0.58402504       0.92801148        6 
C       0.85755538      -1.27340346      -0.07507726        6 
C       0.09996231       1.64715466       0.24023595        6 
O       1.88218319      -1.51388399       0.77170672        8 
O       0.94971173      -1.38370671      -1.27348024        8 
O       1.40976048       1.33465275       0.21215314        8 
O      -0.33944292       2.68867201      -0.18320152        8 
C       2.27412105       2.28339118      -0.44067036        6 
C       3.15217967      -1.78370536       0.15774128        6 
C      -1.72336813      -1.47806669       0.04214932        6 
C      -1.91965826      -0.76671428      -1.28816456        6 
C      -2.24842021       0.50250199      -1.02534965        6 
C      -2.24743092       0.66893559       0.48613289        6 
C      -2.75440921      -0.72515567       0.91530294        6 
H       1.98375118       2.39946745      -1.48565306        1 
H       3.45458758      -0.94419044      -0.47059044        1 
H      -2.36268300       1.31340781      -1.73037566        1 
H       3.27436285       1.86276049      -0.36573703        1 
H       2.22475355       3.25161970       0.05893108        1 
H       3.85156088      -1.91692813       0.98045328        1 
H       3.10132850      -2.68676882      -0.45269897        1 
H      -2.76210198       1.54266996       0.87898932        1 
H      -1.77963027      -2.56599605       0.02071085        1 
H      -3.78239480      -0.90760456       0.59931158        1 
H      -2.65442418      -0.92599787       1.98651230        1 
H      -1.71211107      -1.20612384      -2.25278679        1 
H      -0.28441616      -1.40559047       1.67968720        1 
H      -0.64750977       0.79820388       1.99832366        1 
