29
Lattice="0.0 0.0 0.0 0.0 0.0 0.0 0.0 0.0 0.0" Properties=species:S:1:pos:R:3:Z:I:1 pbc="F F F"
C      -0.35892272       0.85958149      -0.98835717        6 
C      -1.06820055      -0.54188710      -0.83159748        6 
C       1.14122812       0.86310866      -0.76532370        6 
C      -0.25113824      -1.73138579      -0.37919837        6 
O       1.52082279       1.51681434       0.34745114        8 
O       1.92385522       0.37914307      -1.54923032        8 
O       0.62596761      -1.42804010       0.59748354        8 
O      -0.38924987      -2.84555195      -0.82508349        8 
C       1.47895743      -2.49895244       1.04032242        6 
C       2.93245081       1.52214140       0.61973877        6 
C      -1.24882298       1.79802204      -0.09585892        6 
C      -1.10614206       1.36419756       1.35524627        6 
C      -1.71702288       0.18350370       1.48716096        6 
C      -2.27993025      -0.19560127       0.12785741        6 
C      -2.64049629       1.20476031      -0.42014115        6 
H       0.88460619      -3.34401981       1.38945628        1 
H       3.47764320       2.01851812      -0.18440961        1 
H      -1.71818059      -0.45979649       2.35660771        1 
H       2.06907781      -2.08126351       1.85317824        1 
H       2.12544196      -2.82407091       0.22356214        1 
H       3.04635173       2.06709504       1.55444084        1 
H       3.29896409       0.49963844       0.72302642        1 
H      -3.05519801      -0.96065305       0.11313952        1 
H      -1.09569823       2.85675312      -0.29960299        1 
H      -3.44250570       1.67961016       0.14671964        1 
H      -2.88782165       1.20966971      -1.48600810        1 
H      -0.51178778       1.88128268       2.09374051        1 
H      -0.47028740       1.15784373      -2.03351885        1 
H      -1.47790874      -0.84626123      -1.79457025        1 
