29
Lattice="0.0 0.0 0.0 0.0 0.0 0.0 0.0 0.0 0.0" Properties=species:S:1:pos:R:3:Z:I:1 pbc="F F F"
C       0.33477408       1.08158622       0.62779035        6 
C       0.73187807      -0.38224158       1.03479914        6 
C      -1.02709721       1.34872804       0.03158005        6 
C       0.01811106      -1.58734758       0.44207052        6 
O      -2.00180080       0.98001501       0.89107586        8 
O      -1.23699969       1.94298104      -0.99767972        8 
O      -1.03109515      -1.28903362      -0.34110302        8 
O       0.42857072      -2.71531401       0.58972391        8 
C      -1.64695316      -2.39080265      -1.03290212        6 
C      -3.34970288       1.16540202       0.43166427        6 
C       1.55326412       1.58135358      -0.20684312        6 
C       1.68089183       0.69059829      -1.43125597        6 
C       2.10687297      -0.50772149      -1.01706245        6 
C       2.23239775      -0.44831555       0.50048116        6 
C       2.69039736       1.01309563       0.67580536        6 
H      -0.92802559      -2.86592589      -1.70205418        1 
H      -3.51588644       0.60150438      -0.48823327        1 
H       2.21560193      -1.40895554      -1.60595762        1 
H      -2.46537333      -1.95335772      -1.60027407        1 
H      -2.01950670      -3.12895511      -0.32160742        1 
H      -3.98527365       0.78766607       1.22979825        1 
H      -3.55354846       2.22102963       0.24504163        1 
H       2.81421123      -1.23596794       0.97234975        1 
H       1.53631430       2.65356809      -0.39101385        1 
H       3.68018819       1.18722538       0.25144190        1 
H       2.66227083       1.36666324       1.71089404        1 
H       1.37157740       0.97383323      -2.42764636        1 
H       0.31906210       1.65730232       1.56002445        1 
H       0.70973556      -0.50462336       2.11899857        1 
