29
Lattice="0.0 0.0 0.0 0.0 0.0 0.0 0.0 0.0 0.0" Properties=species:S:1:pos:R:3:Z:I:1 pbc="F F F"
C      -0.68763063      -0.03765948      -0.96427686        6 
C       0.52737681      -1.02099499      -0.66516478        6 
C      -0.66794000       1.39694359      -0.44630812        6 
C       1.76528135      -0.58339774       0.09931602        6 
O      -1.84336330       1.71806386       0.14919240        8 
O       0.21772561       2.19867176      -0.59611058        8 
O       2.33762238       0.49499139      -0.44580303        8 
O       2.27094281      -1.22998628       0.98925886        8 
C       3.55147438       0.96113298       0.16674153        6 
C      -1.96599486       3.07721416       0.60342426        6 
C      -1.91297373      -0.89556909      -0.46920739        6 
C      -1.78335055      -1.00807787       1.04594706        6 
C      -0.74824170      -1.81436302       1.30403382        6 
C      -0.17763461      -2.26275169      -0.03238940        6 
C      -1.45801376      -2.30913025      -0.89129097        6 
H       3.37636581       1.20902846       1.21475332        1 
H      -1.82808309       3.77247636      -0.22595907        1 
H      -0.30187511      -2.03577699       2.26297739        1 
H       3.83023742       1.85072658      -0.39292739        1 
H       4.33090113       0.19967539       0.10271242        1 
H      -2.97241703       3.15719701       1.00890974        1 
H      -1.22368987       3.28967228       1.37449847        1 
H       0.45500320      -3.14739512      -0.01444085        1 
H      -2.86835565      -0.53827052      -0.84742885        1 
H      -2.15434436      -3.08605596      -0.57134816        1 
H      -1.26488089      -2.40899637      -1.96432116        1 
H      -2.36377170      -0.43125889       1.75149440        1 
H      -0.74851693       0.08397709      -2.05075639        1 
H       0.93092552      -1.31277576      -1.64158131        1 
