29
Lattice="0.0 0.0 0.0 0.0 0.0 0.0 0.0 0.0 0.0" Properties=species:S:1:pos:R:3:Z:I:1 pbc="F F F"
C      -0.79855032       0.61670998       0.92695977        6 
C       0.75699386       0.42816898       0.92356154        6 
C      -1.63381995      -0.61898800       0.65941334        6 
C       1.29226050      -0.77220561       0.16728362        6 
O      -2.33417501      -0.53315495      -0.48819810        8 
O      -1.69062150      -1.55847656       1.41377531        8 
O       2.64567977      -0.74185470       0.15990710        8 
O       0.65303352      -1.65251161      -0.34995093        8 
C       3.29510474      -1.83204979      -0.51983118        6 
C      -3.08733629      -1.70574267      -0.84825205        6 
C      -1.00961619       1.89855550       0.05534637        6 
C      -0.47375680       1.63257892      -1.34094448        6 
C       0.86009766       1.57922979      -1.26285675        6 
C       1.23661725       1.76401154       0.20121328        6 
C       0.13975230       2.75831283       0.63631202        6 
H       3.03964116      -2.78185222      -0.04757598        1 
H      -3.84912530      -1.91915879      -0.09660080        1 
H       1.55216780       1.30817241      -2.04941430        1 
H       4.36121062      -1.63444900      -0.43235476        1 
H       2.99440711      -1.86200417      -1.56843195        1 
H      -3.54910330      -1.47151874      -1.80525024        1 
H      -2.41845257      -2.56218674      -0.94024866        1 
H       2.27303806       2.01605731       0.41193670        1 
H      -2.01995977       2.29943138       0.11509664        1 
H       0.23890356       3.72406769       0.13801212        1 
H       0.07523388       2.90452067       1.71840967        1 
H      -1.08993596       1.41850237      -2.20246764        1 
H      -1.07027514       0.87856764       1.95425555        1 
H       1.15083388       0.38132005       1.94022695        1 
