29
Lattice="0.0 0.0 0.0 0.0 0.0 0.0 0.0 0.0 0.0" Properties=species:S:1:pos:R:3:Z:I:1 pbc="F F F"
C      -0.35646903       0.82354315       0.87394709        6 
C       1.09850661       0.24081254       0.91195185        6 
C      -1.49135549      -0.14477481       0.62836401        6 
C       1.36422078      -1.17116940       0.43212175        6 
O      -2.48133143       0.42742834      -0.09091671        8 
O      -1.54672179      -1.27229918       1.05351807        8 
O       0.65225833      -1.50782271      -0.65757803        8 
O       2.20267777      -1.88781458       0.92719417        8 
C       0.81768980      -2.85328883      -1.13579999        6 
C      -3.63720943      -0.39354848      -0.34068417        6 
C      -0.23337579       2.08815066      -0.04248940        6 
C       0.12724948       1.62042047      -1.44119096        6 
C       1.38375459       1.16598877      -1.40438911        6 
C       1.88153601       1.30665834       0.02583894        6 
C       1.14549979       2.60158356       0.43856688        6 
H       1.86031190      -3.04738788      -1.39182934        1 
H      -4.10950801      -0.68560754       0.59848201        1 
H       1.92017383       0.66321813      -2.19761848        1 
H       0.18488094      -2.92635793      -2.01786205        1 
H       0.49242452      -3.56219931      -0.37294532        1 
H      -4.30911959       0.22496641      -0.93194093        1 
H      -3.35327606      -1.29006466      -0.89352378        1 
H       2.95911474       1.26209812       0.17430960        1 
H      -1.08254490       2.76291245       0.03891274        1 
H       1.48810494       3.47031879      -0.12502372        1 
H       1.19014661       2.81192357       1.51136550        1 
H      -0.56550104       1.56742740      -2.26979852        1 
H      -0.56979130       1.18496562       1.88819548        1 
H       1.49254597       0.27381965       1.92659515        1 
