29
Lattice="0.0 0.0 0.0 0.0 0.0 0.0 0.0 0.0 0.0" Properties=species:S:1:pos:R:3:Z:I:1 pbc="F F F"
C      -0.77653010       0.79100921      -0.87099864        6 
C      -0.44485562      -0.75547375      -0.93118735        6 
C       0.11191474       1.77314251      -0.11603239        6 
C       0.97010986      -1.23011191      -0.66906770        6 
O       1.41140129       1.45390219      -0.13397744        8 
O      -0.31934171       2.76373352       0.42796060        8 
O       1.05813625      -1.98986263       0.44610154        8 
O       1.91361997      -0.98450276      -1.37742042        8 
C       2.36860992      -2.49368890       0.75955955        6 
C       2.30642032       2.36659695       0.52719106        6 
C      -2.20465337       0.77471030      -0.19437656        6 
C      -1.95181547       0.41070794       1.26592739        6 
C      -1.58483506      -0.87498520       1.29793545        6 
C      -1.62097036      -1.40119585      -0.12931927        6 
C      -2.78367197      -0.56017601      -0.70834186        6 
H       2.73588277      -3.13178775      -0.04583152        1 
H       2.04885617       2.45463660       1.58372064        1 
H      -1.22847427      -1.43922652       2.14807032        1 
H       2.24829085      -3.06543239       1.67729234        1 
H       3.06749063      -1.66913010       0.90810572        1 
H       3.29666941       1.93428015       0.40353746        1 
H       2.25548644       3.35204128       0.06207904        1 
H      -1.67489197      -2.48262702      -0.24432972        1 
H      -2.77576675       1.68230078      -0.37335261        1 
H      -3.74540480      -0.79633758      -0.25090785        1 
H      -2.86900320      -0.62022581      -1.79770229        1 
H      -1.95110408       1.12025219       2.08107578        1 
H      -0.83859342       1.17873103      -1.89212898        1 
H      -0.58545413      -1.03554875      -1.98093045        1 
