29
Lattice="0.0 0.0 0.0 0.0 0.0 0.0 0.0 0.0 0.0" Properties=species:S:1:pos:R:3:Z:I:1 pbc="F F F"
C      -0.63804707       0.13999059       0.93275396        6 
C       0.69013587       0.93552360       0.68099232        6 
C      -0.83301680      -1.13748727       0.13480219        6 
C       1.82739948       0.23036650      -0.02660038        6 
O      -2.12382820      -1.53670192       0.21860637        8 
O       0.00725494      -1.76777032      -0.45628099        8 
O       2.32979407      -0.74910286       0.75180719        8 
O       2.31298844       0.57159440      -1.07739402        8 
C       3.32822277      -1.58620056       0.14422574        6 
C      -2.45479157      -2.75791560      -0.46774336        6 
C      -1.73254218       1.21402729       0.51835015        6 
C      -1.63916385       1.29853539      -1.00023864        6 
C      -0.47901015       1.89461245      -1.29816172        6 
C       0.20134070       2.25629129       0.01228392        6 
C      -1.03389010       2.53334242       0.90382854        6 
H       2.88600276      -2.13339932      -0.68991748        1 
H      -1.87744196      -3.59192507      -0.06558537        1 
H      -0.02894638       2.01359478      -2.27322619        1 
H       3.64635509      -2.27425880       0.92472560        1 
H       4.16951455      -0.98984810      -0.21108723        1 
H      -3.51783893      -2.90881133      -0.29256639        1 
H      -2.25102785      -2.66274592      -1.53544530        1 
H       0.97386228       3.02082850      -0.04434690        1 
H      -2.71567493       1.01153592       0.93596469        1 
H      -1.59922653       3.40857916       0.58005005        1 
H      -0.79798519       2.61806585       1.96897775        1 
H      -2.33376916       0.83108762      -1.68575448        1 
H      -0.73757645      -0.12806869       1.98739170        1 
H       1.09516259       1.18528430       1.66669785        1 
