29
Lattice="0.0 0.0 0.0 0.0 0.0 0.0 0.0 0.0 0.0" Properties=species:S:1:pos:R:3:Z:I:1 pbc="F F F"
C      -0.68163751       0.48093812      -1.00100915        6 
C      -0.49892646      -1.03256518      -0.63550247        6 
C       0.28861003       1.57329929      -0.59417917        6 
C       0.81440702      -1.67613908      -0.23388229        6 
O       0.77042086       1.45833697       0.65272050        8 
O       0.49619201       2.54000774      -1.29406342        8 
O       1.86554912      -0.84307612      -0.19140537        8 
O       0.92242560      -2.87651081      -0.12180835        8 
C       3.14801380      -1.45554644       0.03840559        6 
C       1.64709097       2.50880970       1.08911174        6 
C      -2.10640173       0.77749881      -0.33004101        6 
C      -1.90824442       0.73584599       1.17842871        6 
C      -1.68086674      -0.53653611       1.52115826        6 
C      -1.74730198      -1.37162313       0.25619072        6 
C      -2.81173881      -0.58031992      -0.54198973        6 
H       3.15018322      -1.99033847       0.98887604        1 
H       1.12429649       3.46674891       1.10508961        1 
H      -1.39107796      -0.91156883       2.49383598        1 
H       3.85998904      -0.63341410       0.05689823        1 
H       3.38569777      -2.15395015      -0.76565730        1 
H       1.96097865       2.22595195       2.09166285        1 
H       2.50857969       2.58667733       0.42375016        1 
H      -1.89556897      -2.44236140       0.37922539        1 
H      -2.58170890       1.66792115      -0.73808260        1 
H      -3.79637889      -0.61088593      -0.07307912        1 
H      -2.89148718      -0.88179925      -1.59030441        1 
H      -1.83498108       1.60646177       1.81522850        1 
H      -0.77794773       0.58512325      -2.08092620        1 
H      -0.68183935      -1.56994193      -1.57412176        1 
