29
Lattice="0.0 0.0 0.0 0.0 0.0 0.0 0.0 0.0 0.0" Properties=species:S:1:pos:R:3:Z:I:1 pbc="F F F"
C      -0.94878492       0.55475282      -0.78132121        6 
C      -0.11745022      -0.77190466      -0.82351019        6 
C      -0.33068691       1.77734929      -0.13900867        6 
C       1.13465072      -0.83474961       0.02024592        6 
O       0.91094995       1.99652026      -0.61873254        8 
O      -0.91117227       2.54415986       0.58955340        8 
O       2.00899218      -1.72159150      -0.51100443        8 
O       1.33877797      -0.24605546       1.05303004        8 
C       3.21616773      -1.94194683       0.24060394        6 
C       1.61550638       3.11682016      -0.05550221        6 
C      -2.32924517       0.11374525      -0.19473962        6 
C      -2.09419275      -0.34322870       1.23471368        6 
C      -1.42480494      -1.49935181       1.18513170        6 
C      -1.18360226      -1.82766862      -0.28146103        6 
C      -2.47447328      -1.25311631      -0.90646047        6 
H       3.77471458      -1.01071881       0.34667208        1 
H       1.75079501       2.96823104       1.01679549        1 
H      -0.99604986      -2.04099432       2.01732270        1 
H       3.78725052      -2.66816488      -0.33366073        1 
H       2.98355664      -2.33389251       1.23217855        1 
H       2.57799110       3.13947581      -0.56206764        1 
H       1.06675137       4.04363842      -0.22919758        1 
H      -0.91655567      -2.85645203      -0.51850813        1 
H      -3.11576213       0.85012936      -0.34500054        1 
H      -3.36542949      -1.79862616      -0.59248379        1 
H      -2.44350025      -1.18945465      -1.99862457        1 
H      -2.32636032       0.24625544       2.11016964        1 
H      -1.10470339       0.86109502      -1.82266420        1 
H       0.15032986      -1.03124417      -1.84720996        1 
