29
Lattice="0.0 0.0 0.0 0.0 0.0 0.0 0.0 0.0 0.0" Properties=species:S:1:pos:R:3:Z:I:1 pbc="F F F"
C      -0.20422365       0.90824146       0.89342009        6 
C       1.11785996       0.06464810       0.92008604        6 
C      -1.49492795       0.14576688       0.69294036        6 
C       1.13220925      -1.36108032       0.41121627        6 
O      -2.31180233       0.74939203      -0.19518482        8 
O      -1.78939396      -0.85988703       1.29148838        8 
O       0.23255598      -1.59683208      -0.55989362        8 
O       1.94683606      -2.17744534       0.77450162        8 
C       0.21036853      -2.92960395      -1.09856902        6 
C      -3.58201330       0.10902817      -0.41747334        6 
C       0.13802849       2.10881526      -0.05319637        6 
C       0.40480820       1.55962705      -1.44354688        6 
C       1.56180341       0.89165882      -1.40083082        6 
C       2.08105154       0.96508016       0.02665055        6 
C       1.58747027       2.37431812       0.41997720        6 
H       1.18262130      -3.18947886      -1.51979950        1 
H      -4.14716558       0.04471709       0.51345034        1 
H       1.99933223       0.29061283      -2.18683029        1 
H      -0.55317027      -2.91611665      -1.87352525        1 
H      -0.04895983      -3.64613782      -0.31806839        1 
H      -4.10080247       0.73652100      -1.13903314        1 
H      -3.43493979      -0.89531315      -0.81742480        1 
H       3.13230591       0.72749543       0.17765943        1 
H      -0.57398958       2.92882739       0.01419415        1 
H       2.08001351       3.16062574      -0.15391826        1 
H       1.67054777       2.58761786       1.48979977        1 
H      -0.29090706       1.61631998      -2.26911586        1 
H      -0.32327047       1.32027685       1.90285455        1 
H       1.52046294       0.01490749       1.93086392        1 
