29
Lattice="0.0 0.0 0.0 0.0 0.0 0.0 0.0 0.0 0.0" Properties=species:S:1:pos:R:3:Z:I:1 pbc="F F F"
C      -0.80442006       0.46289889       0.99277540        6 
C       0.76273344       0.73120568       0.90205467        6 
C      -1.28702058      -0.92395543       0.60354698        6 
C       1.64183291      -0.44760161       0.52932131        6 
O      -2.08914766      -0.92110473      -0.48462650        8 
O      -1.03307791      -1.92431287       1.22608287        8 
O       2.06348200      -0.40782727      -0.75519809        8 
O       1.92684809      -1.33908827       1.28759324        8 
C       2.87130519      -1.51895855      -1.18485407        6 
C      -2.61042129      -2.20099138      -0.88582281        6 
C      -1.38910801       1.67887635       0.18707237        6 
C      -0.99833426       1.51223021      -1.27442675        6 
C       0.31876331       1.71149355      -1.36570085        6 
C       0.83341608       2.02902750       0.02827982        6 
C      -0.39000901       2.78410133       0.60383437        6 
H       3.79574626      -1.56642811      -0.60709318        1 
H      -3.23956017      -2.62071144      -0.09926023        1 
H       0.94559437       1.57462000      -2.23448688        1 
H       3.08523861      -1.33248525      -2.23524920        1 
H       2.32596978      -2.45580444      -1.06178643        1 
H      -3.19570613      -2.00644875      -1.78214888        1 
H      -1.79667987      -2.89509880      -1.09999764        1 
H       1.80059379       2.52727635       0.08197514        1 
H      -2.44518545       1.85564577       0.38541945        1 
H      -0.57752253       3.72880395       0.09173027        1 
H      -0.33883114       2.95162882       1.68414931        1 
H      -1.66916826       1.18086242      -2.05317242        1 
H      -1.08655973       0.55225215       2.04438526        1 
H       1.09187071       0.97870998       1.91377536        1 
