29
Lattice="0.0 0.0 0.0 0.0 0.0 0.0 0.0 0.0 0.0" Properties=species:S:1:pos:R:3:Z:I:1 pbc="F F F"
C      -0.58599386       0.69404487      -0.97209494        6 
C      -0.77371604      -0.85194934      -0.74097526        6 
C       0.72554253       1.38716865      -0.64853439        6 
C       0.33923230      -1.76596592      -0.26961261        6 
O       0.99895163       1.45885776       0.66658609        8 
O       1.40709204       1.92566701      -1.49065032        8 
O       1.52245350      -1.15922781      -0.08310193        8 
O       0.18758697      -2.96165979      -0.17012420        8 
C       2.62694470      -2.01412906       0.26724493        6 
C       2.23170315       2.10458677       1.01814097        6 
C      -1.82748714       1.28034376      -0.17445926        6 
C      -1.62677147       0.98822460       1.30593188        6 
C      -1.77457528      -0.32844892       1.48341830        6 
C      -2.08456376      -0.93892791       0.12877484        6 
C      -2.88925847       0.21016972      -0.51890442        6 
H       2.42565877      -2.52915630       1.20739113        1 
H       2.23578328       3.14188035       0.67936461        1 
H      -1.59933417      -0.89393216       2.38915159        1 
H       3.48430743      -1.35229193       0.36597257        1 
H       2.79873978      -2.75197414      -0.51756740        1 
H       2.28663353       2.05402485       2.10373154        1 
H       3.07571033       1.57987008       0.56673651        1 
H      -2.52326135      -1.93434758       0.12569327        1 
H      -2.05056205       2.31321730      -0.43902759        1 
H      -3.83995767       0.38896565      -0.01451934        1 
H      -3.05739533       0.08291461      -1.59256934        1 
H      -1.30662574       1.71464227       2.03821599        1 
H      -0.73077227       0.89695278      -2.03285057        1 
H      -1.02091989      -1.28548132      -1.71588433        1 
