29
Lattice="0.0 0.0 0.0 0.0 0.0 0.0 0.0 0.0 0.0" Properties=species:S:1:pos:R:3:Z:I:1 pbc="F F F"
C      -0.73662153       0.35038095       0.95542090        6 
C       0.80710205       0.58455132       0.85421182        6 
C      -1.30735292      -0.81525435       0.16009491        6 
C       1.68660040      -0.62332725       0.60578384        6 
O      -2.65913444      -0.70052395       0.10557268        8 
O      -0.71405968      -1.74698225      -0.31550718        8 
O       2.54556946      -0.42291257      -0.41719475        8 
O       1.63701778      -1.64009967       1.24911773        8 
C       3.39063895      -1.54179497      -0.74640440        6 
C      -3.35188094      -1.74873143      -0.59460521        6 
C      -1.28538373       1.70502979       0.31457303        6 
C      -1.03277158       1.54540275      -1.18150412        6 
C       0.28960319       1.60973321      -1.37204545        6 
C       0.93803649       1.86954336      -0.02319867        6 
C      -0.16950691       2.71014495       0.66120230        6 
H       4.02944447      -1.80155153       0.09914792        1 
H      -3.17936339      -2.71195592      -0.11186110        1 
H       0.83194035       1.41541131      -2.28705875        1 
H       3.98971142      -1.21395847      -1.59333964        1 
H       2.78019226      -2.40512878      -1.01468489        1 
H      -4.40531252      -1.48052934      -0.54941699        1 
H      -3.01435246      -1.80387585      -1.63114646        1 
H       1.94517912       2.28032330      -0.04218933        1 
H      -2.30301097       1.94336910       0.61300476        1 
H      -0.32569524       3.67675085       0.17959104        1 
H      -0.01273573       2.85249017       1.73435393        1 
H      -1.78843800       1.28245029      -1.90985070        1 
H      -1.06226542       0.23688790       1.99049191        1 
H       1.11761564       0.88107598       1.86414702        1 
