29
Lattice="0.0 0.0 0.0 0.0 0.0 0.0 0.0 0.0 0.0" Properties=species:S:1:pos:R:3:Z:I:1 pbc="F F F"
C      -0.86980651       0.73232576       0.64550759        6 
C       0.60298326       0.27549074       0.87631513        6 
C      -1.89973958      -0.21889712       0.07885117        6 
C       1.12574305      -0.84891500       0.00376213        6 
O      -1.74312414      -1.46131421       0.57455477        8 
O      -2.87230370       0.12981604      -0.54735316        8 
O       2.38543290      -1.16966345       0.39073678        8 
O       0.56068029      -1.39944583      -0.90610819        8 
C       3.02670263      -2.21608697      -0.36003334        6 
C      -2.70495552      -2.44147370       0.14987257        6 
C      -0.74469219       2.14054590      -0.01565246        6 
C       0.00026646       1.98660484      -1.32992179        6 
C       1.27447332       1.69853370      -1.04474506        6 
C       1.39408588       1.60872539       0.47157299        6 
C       0.38605926       2.70308725       0.88076265        6 
H       2.46458616      -3.14736839      -0.27250909        1 
H      -2.68242987      -2.54347664      -0.93595496        1 
H       2.05492253       1.42615965      -1.74324877        1 
H       4.01617046      -2.32423288       0.07897747        1 
H       3.10156120      -1.94236128      -1.41370772        1 
H      -2.39890799      -3.37138733       0.62431965        1 
H      -3.71019543      -2.15935731       0.46778322        1 
H       2.39877916       1.65005112       0.88595594        1 
H      -1.68770555       2.68076142      -0.05228565        1 
H       0.71299385       3.69714683       0.57196624        1 
H       0.14097737       2.70753614       1.94693393        1 
H      -0.46717746       2.00609935      -2.30492455        1 
H      -1.28135228       0.90713710       1.64891895        1 
H       0.79396443       0.02054468       1.91857348        1 
