29
Lattice="0.0 0.0 0.0 0.0 0.0 0.0 0.0 0.0 0.0" Properties=species:S:1:pos:R:3:Z:I:1 pbc="F F F"
C      -0.61769361       0.37385082       0.86503832        6 
C       0.91379855       0.66331115       0.73945116        6 
C      -1.18084594      -0.74460424       0.01813274        6 
C       1.79817979      -0.37810884       0.09045458        6 
O      -2.44097880      -1.03284898       0.42301698        8 
O      -0.64339471      -1.30440339      -0.90451547        8 
O       1.63788869      -1.57615147       0.69069671        8 
O       2.64233011      -0.15112884      -0.74088138        8 
C       2.36688405      -2.67442378       0.11654205        6 
C      -3.12586572      -2.05553740      -0.32262671        6 
C      -1.23843567       1.76010636       0.37526249        6 
C      -0.95639431       1.84263191      -1.11808665        6 
C       0.36014426       2.02274957      -1.26989504        6 
C       0.97714014       2.09265102       0.11591018        6 
C      -0.18013131       2.75044025       0.90565970        6 
H       2.02145732      -2.85180360      -0.90318936        1 
H      -2.59121961      -3.00382988      -0.24790061        1 
H       0.92564648       2.00261554      -2.19068745        1 
H       2.14519777      -3.53254080       0.74773366        1 
H       3.43800069      -2.46803090       0.11034157        1 
H      -4.11096835      -2.13549750       0.13197636        1 
H      -3.20950684      -1.77365178      -1.37342096        1 
H       1.96334033       2.54707002       0.18124286        1 
H      -2.27207421       1.89365764       0.68840257        1 
H      -0.37892335       3.77508182       0.58788894        1 
H      -0.04892877       2.71612584       1.99131732        1 
H      -1.68211568       1.64222066      -1.89551018        1 
H      -0.90560134       0.19142805       1.90028927        1 
H       1.30146677       0.72948560       1.76276662        1 
