29
Lattice="0.0 0.0 0.0 0.0 0.0 0.0 0.0 0.0 0.0" Properties=species:S:1:pos:R:3:Z:I:1 pbc="F F F"
C      -0.74886140       0.51165604       0.77064266        6 
C       0.80419466       0.26998768       0.74738558        6 
C      -1.67841008      -0.37154691      -0.04058204        6 
C       1.39047164      -0.88666416      -0.02959530        6 
O      -2.51134644      -1.04720091       0.79729099        8 
O      -1.71734870      -0.49402536      -1.23528143        8 
O       2.51756126      -1.31809735       0.60025261        8 
O       1.00161697      -1.36009974      -1.06451730        8 
C       3.23782484      -2.37183633      -0.06272792        6 
C      -3.45244952      -1.93003265       0.16071382        6 
C      -0.85008303       2.02106973       0.28681413        6 
C      -0.39614877       2.06616137      -1.16254545        6 
C       0.92436160       1.85912903      -1.18036761        6 
C       1.37286138       1.66555415       0.25378981        6 
C       0.39441997       2.60945685       0.98580323        6 
H       2.61169676      -3.26015457      -0.16127017        1 
H      -2.92839043      -2.68604586      -0.42594631        1 
H       1.54669048       1.70522341      -2.05124557        1 
H       4.09835312      -2.57881089       0.57000752        1 
H       3.55911905      -2.05203746      -1.05556309        1 
H      -4.01252813      -2.39144611       0.97146751        1 
H      -4.12009013      -1.36956276      -0.49612449        1 
H       2.43617977       1.77788300       0.45971740        1 
H      -1.81640499       2.47225894       0.50940946        1 
H       0.55849016       3.65693973       0.72880770        1 
H       0.39197430       2.48733559       2.07297293        1 
H      -1.05808584       2.11812451      -2.01438730        1 
H      -1.08170838       0.45080907       1.80605472        1 
H       1.13409821       0.13447748       1.77818934        1 
