29
Lattice="0.0 0.0 0.0 0.0 0.0 0.0 0.0 0.0 0.0" Properties=species:S:1:pos:R:3:Z:I:1 pbc="F F F"
C      -0.82863072       0.66417560       0.93976270        6 
C       0.73297641       0.48788247       0.90655097        6 
C      -1.67779658      -0.55823577       0.64276179        6 
C       1.26787040      -0.78611856       0.28456719        6 
O      -1.99846801      -0.67764606      -0.65816100        8 
O      -2.07964713      -1.30554310       1.50202803        8 
O       2.60974220      -0.70261258       0.13807716        8 
O       0.63317388      -1.76284630      -0.02566151        8 
C       3.25520484      -1.85653103      -0.43190857        6 
C      -2.70020244      -1.87880741      -1.02128027        6 
C      -1.04140943       1.93564537       0.03995933        6 
C      -0.54734716       1.63080198      -1.36536281        6 
C       0.78661716       1.55589020      -1.32272114        6 
C       1.20650500       1.77797123       0.12168586        6 
C       0.13316749       2.79598197       0.56428660        6 
H       3.09080382      -2.73467452       0.19434786        1 
H      -3.65225442      -1.94519168      -0.49227854        1 
H       1.45352817       1.25919230      -2.12145262        1 
H       4.31290126      -1.60602752      -0.47218942        1 
H       2.86839742      -2.05341400      -1.43308421        1 
H      -2.86181362      -1.80719890      -2.09500213        1 
H      -2.08827272      -2.74934720      -0.78129194        1 
H       2.25035097       2.02729220       0.29561865        1 
H      -2.04464755       2.35272400       0.11703269        1 
H       0.22568677       3.74815692       0.03930567        1 
H       0.10347556       2.96866357       1.64401807        1 
H      -1.18937747       1.41113015      -2.20558794        1 
H      -1.10228501       0.92569046       1.96317421        1 
H       1.12658338       0.51622624       1.92648405        1 
