29
Lattice="0.0 0.0 0.0 0.0 0.0 0.0 0.0 0.0 0.0" Properties=species:S:1:pos:R:3:Z:I:1 pbc="F F F"
C      -0.72715932       0.59242697      -0.91416345        6 
C      -0.41623778      -0.94275228      -0.68786463        6 
C       0.12666728       1.62966770      -0.20547994        6 
C       0.83282557      -1.28640799       0.09527736        6 
O       1.44143455       1.34160974      -0.27882642        8 
O      -0.30130594       2.62938625       0.31761206        8 
O       1.86625680      -1.51747854      -0.74275422        8 
O       0.90998301      -1.41566550       1.29316522        8 
C       3.13058321      -1.79273494      -0.11966288        6 
C       2.33050743       2.27053556       0.36921254        6 
C      -2.23896614       0.69466917      -0.48958608        6 
C      -2.26781344       0.51430127       1.02178615        6 
C      -1.96157081      -0.76161711       1.27858819        6 
C      -1.75288564      -1.46324889      -0.05612014        6 
C      -2.75858998      -0.68844852      -0.94050580        6 
H       3.42963930      -0.95588276       0.51400538        1 
H       2.09435567       2.34071993       1.43170336        1 
H      -1.77671421      -1.21380297       2.24184046        1 
H       3.83605829      -1.92417034      -0.93740763        1 
H       3.07309200      -2.69772343       0.48724145        1 
H       3.32891763       1.86434805       0.22340746        1 
H       2.24754469       3.25849871      -0.08586861        1 
H      -1.82422870      -2.55051769      -0.04773167        1 
H      -2.73734526       1.57802766      -0.88294700        1 
H      -3.79488211      -0.85960254      -0.64643401        1 
H      -2.64186890      -0.88064933      -2.01184114        1 
H      -2.38307402       1.32092693       1.73102505        1 
H      -0.61726570       0.80992844      -1.98196355        1 
H      -0.29002790      -1.39905761      -1.67113239        1 
