29
Lattice="0.0 0.0 0.0 0.0 0.0 0.0 0.0 0.0 0.0" Properties=species:S:1:pos:R:3:Z:I:1 pbc="F F F"
C      -0.87547158       0.72793850       0.59735556        6 
C       0.57881797       0.24025238       0.87111133        6 
C      -1.97475503      -0.18765905       0.10204990        6 
C       1.14264219      -0.87333439       0.00411563        6 
O      -1.75587926      -1.47214724       0.42749887        8 
O      -3.03754687       0.21974484      -0.30781721        8 
O       2.41621389      -1.13383423       0.40143565        8 
O       0.60607563      -1.47001545      -0.89184969        8 
C       3.10182282      -2.16686831      -0.32691931        6 
C      -2.80529452      -2.40018578       0.10499089        6 
C      -0.70524545       2.12124681      -0.08872598        6 
C       0.09613918       1.93946301      -1.36527993        6 
C       1.35356586       1.64347827      -1.01903550        6 
C       1.40124174       1.56894651       0.50326417        6 
C       0.39226543       2.68338269       0.84879249        6 
H       2.57380794      -3.11716480      -0.23117819        1 
H      -3.02035608      -2.37159795      -0.96392058        1 
H       2.16233169       1.35351250      -1.67692967        1 
H       4.09071759      -2.23193147       0.12193279        1 
H       3.17650269      -1.90659416      -1.38424083        1 
H      -2.42228117      -3.37768668       0.38949452        1 
H      -3.71363090      -2.16293309       0.66210453        1 
H       2.38557111       1.60360192       0.96339664        1 
H      -1.64018462       2.67038089      -0.17128891        1 
H       0.74877318       3.66639057       0.53723509        1 
H       0.09741325       2.71273269       1.90166824        1 
H      -0.32427046       1.95194214      -2.36195463        1 
H      -1.27938833       0.95778630       1.59376433        1 
H       0.72917935      -0.03184322       1.91583103        1 
