29
Lattice="0.0 0.0 0.0 0.0 0.0 0.0 0.0 0.0 0.0" Properties=species:S:1:pos:R:3:Z:I:1 pbc="F F F"
C      -0.78615095       0.52372677       0.90302329        6 
C       0.77520174       0.44432618       0.87398337        6 
C      -1.53627391      -0.75843160       0.61268814        6 
C       1.38679691      -0.68006010       0.06504420        6 
O      -2.49809510      -0.59149448      -0.31799415        8 
O      -1.32643993      -1.80162609       1.17999906        8 
O       2.72307024      -0.72307445       0.28151271        8 
O       0.81615285      -1.43246067      -0.68265177        8 
C       3.44173393      -1.74199242      -0.43773766        6 
C      -3.24388481      -1.77384203      -0.66240592        6 
C      -1.11442201       1.82687653       0.10542806        6 
C      -0.60913100       1.66200779      -1.31678168        6 
C       0.72701424       1.68801738      -1.27969464        6 
C       1.14065219       1.83489962       0.17821543        6 
C      -0.00412226       2.73486382       0.69027588        6 
H       3.08787822      -2.73261406      -0.14744795        1 
H      -3.76540160      -2.16559968       0.21224847        1 
H       1.40647391       1.49034482      -2.09845395        1 
H       4.48553097      -1.61142384      -0.16090100        1 
H       3.30996582      -1.61696864      -1.51377567        1 
H      -3.95468844      -1.45765666      -1.42309176        1 
H      -2.57195701      -2.53828154      -1.05464251        1 
H       2.16493862       2.14793959       0.36848303        1 
H      -2.14583169       2.15493596       0.21750746        1 
H       0.01517642       3.72537146       0.23269112        1 
H      -0.04140177       2.83098975       1.77942169        1 
H      -1.23747922       1.44561382      -2.16935440        1 
H      -1.05569783       0.72016254       1.94764746        1 
H       1.19414587       0.40850173       1.87924895        1 
