29
Lattice="0.0 0.0 0.0 0.0 0.0 0.0 0.0 0.0 0.0" Properties=species:S:1:pos:R:3:Z:I:1 pbc="F F F"
C      -0.80254855       0.27348200       0.72995723        6 
C       0.75799071       0.40511288       0.77358003        6 
C      -1.49026141      -0.91799859       0.09684141        6 
C       1.66472402      -0.50372678      -0.03527893        6 
O      -2.78395442      -0.93305645       0.52797918        8 
O      -1.05653819      -1.72752372      -0.67691163        8 
O       2.72033355      -0.88165853       0.73835993        8 
O       1.54206740      -0.84385044      -1.18032115        8 
C       3.69482120      -1.71779717       0.09065601        6 
C      -3.61700311      -1.96592356      -0.02539473        6 
C      -1.27767913       1.66380122       0.14341862        6 
C      -0.76208307       1.75994316      -1.27798850        6 
C       0.56514934       1.90764663      -1.21605391        6 
C       0.95943954       1.90273369       0.25180740        6 
C      -0.27709739       2.58779581       0.87061643        6 
H       3.22685793      -2.63067060      -0.28131242        1 
H      -3.22699229      -2.95235462       0.23109923        1 
H       1.26044216       1.88955377      -2.04311358        1 
H       4.43457175      -1.94861772       0.85438978        1 
H       4.15908496      -1.19055656      -0.74511921        1 
H      -4.59897437      -1.81616766       0.41871964        1 
H      -3.66992292      -1.87606874      -1.11185241        1 
H       1.94074063       2.30602569       0.49724307        1 
H      -2.33991126       1.84087823       0.29896048        1 
H      -0.37156276       3.62921195       0.55940626        1 
H      -0.32416418       2.51781366       1.96112720        1 
H      -1.35860684       1.60019425      -2.16625135        1 
H      -1.14269501       0.25436977       1.76890566        1 
H       1.08749945       0.34808256       1.80989035        1 
