29
Lattice="0.0 0.0 0.0 0.0 0.0 0.0 0.0 0.0 0.0" Properties=species:S:1:pos:R:3:Z:I:1 pbc="F F F"
C      -0.36963023       0.89048908      -0.93348514        6 
C      -0.99111831      -0.55674145      -0.84733640        6 
C       1.12210806       1.05180285      -0.71085286        6 
C      -0.21587879      -1.73500473      -0.29239618        6 
O       1.44320163       1.41356662       0.54623038        8 
O       1.93792579       0.93984847      -1.59502038        8 
O       1.03532723      -1.44590735       0.09639898        8 
O      -0.69664263      -2.84153654      -0.21139672        8 
C       1.81519722      -2.54224255       0.60847329        6 
C       2.84637257       1.56096111       0.81492541        6 
C      -1.33917685       1.72719070      -0.02110597        6 
C      -1.25240475       1.19646822       1.40323829        6 
C      -1.83122093      -0.00883890       1.42288417        6 
C      -2.29994161      -0.31155585       0.00784570        6 
C      -2.68455633       1.10511598      -0.46578522        6 
H       1.37001510      -2.92735236       1.52699340        1 
H       3.27780816       2.34505401       0.19071424        1 
H      -1.86308995      -0.71174925       2.24494315        1 
H       2.80170275      -2.12812222       0.80327021        1 
H       1.87277099      -3.34366504      -0.12873537        1 
H       2.91523452       1.82697046       1.86771150        1 
H       3.36900478       0.62311487       0.61988622        1 
H      -3.03014483      -1.10931752      -0.10726546        1 
H      -1.21916842       2.80295740      -0.14268382        1 
H      -3.53720961       1.50824107       0.08254968        1 
H      -2.86829557       1.17711615      -1.54195852        1 
H      -0.71713255       1.68162148       2.20616302        1 
H      -0.50578018       1.22486370      -1.96370324        1 
H      -1.28682936      -0.87397294      -1.85088532        1 
