29
Lattice="0.0 0.0 0.0 0.0 0.0 0.0 0.0 0.0 0.0" Properties=species:S:1:pos:R:3:Z:I:1 pbc="F F F"
C      -0.98972607       0.55954130      -0.85890008        6 
C      -0.36793461      -0.88788276      -0.93339476        6 
C      -0.21784176       1.73685707      -0.29568512        6 
C       1.12451984      -1.04862993      -0.71710818        6 
O       1.03246366       1.44486774       0.09414030        8 
O      -0.70041828       2.84162397      -0.20486265        8 
O       1.44877519      -1.42432234       0.53527931        8 
O       1.93777793      -0.92912132      -1.60247194        8 
C       2.85208803      -1.58418262       0.79613180        6 
C       1.80687741       2.53283681       0.63056155        6 
C      -2.30385169       0.31683818      -0.00853962        6 
C      -1.83751643       0.03431216       1.41117379        6 
C      -1.25127178      -1.16775333       1.40647028        6 
C      -1.33335768      -1.71765988      -0.01116440        6 
C      -2.68059152      -1.10768961      -0.46585219        6 
H       3.27514798      -2.36427075       0.16118021        1 
H       1.34690873       2.91025102       1.54497090        1 
H      -0.71365809      -1.64027453       2.21549177        1 
H       2.92370325      -1.86278855       1.84546264        1 
H       3.38080702      -0.64812106       0.60918077        1 
H       2.78831350       2.11306278       0.83857170        1 
H       1.88041881       3.34127147      -0.09747211        1 
H      -1.20842258      -2.79446900      -0.11814155        1 
H      -3.03709959       1.10953735      -0.13661497        1 
H      -3.53200339      -1.50874151       0.08610617        1 
H      -2.86278670      -1.19466487      -1.54118456        1 
H      -1.87445066       0.74637913       2.22500496        1 
H      -1.27864441       0.87361307      -1.86525812        1 
H      -0.50894428      -1.23166306      -1.95999623        1 
