29
Lattice="0.0 0.0 0.0 0.0 0.0 0.0 0.0 0.0 0.0" Properties=species:S:1:pos:R:3:Z:I:1 pbc="F F F"
C      -0.69976992       0.47978819       1.00875644        6 
C       0.84126865       0.80361868       0.84096078        6 
C      -1.14047383      -0.90420303       0.55904328        6 
C       1.74607453      -0.36689227       0.51383586        6 
O      -2.25389076      -0.86765667      -0.20416852        8 
O      -0.62537690      -1.93547731       0.91477933        8 
O       1.82824432      -0.60981878      -0.81184093        8 
O       2.29907225      -1.03888498       1.34743309        8 
C       2.56782411      -1.78716284      -1.18577468        6 
C      -2.77190107      -2.14298855      -0.62543987        6 
C      -1.36705957       1.68411801       0.24078599        6 
C      -1.08858471       1.47432480      -1.24126149        6 
C       0.21726897       1.67643283      -1.43755212        6 
C       0.83140777       2.05463525      -0.10004450        6 
C      -0.35748005       2.81466821       0.54131852        6 
H       3.60505424      -1.70944865      -0.85638704        1 
H      -3.02866072      -2.75689721       0.23904266        1 
H       0.77837352       1.50823284      -2.34544071        1 
H       2.51269369      -1.83163675      -2.27161292        1 
H       2.11256251      -2.67114402      -0.73704510        1 
H      -3.65869782      -1.91494167      -1.21286056        1 
H      -2.03433231      -2.67025383      -1.23243089        1 
H       1.79259227       2.56594972      -0.13700794        1 
H      -2.40672770       1.84914586       0.51679725        1 
H      -0.59989188       3.73779371       0.01295524        1 
H      -0.22343704       3.02097536       1.60752407        1 
H      -1.81251516       1.10958747      -1.95533622        1 
H      -0.94781505       0.51901281       2.07286867        1 
H       1.20111077       1.13003693       1.81843896        1 
