29
Lattice="0.0 0.0 0.0 0.0 0.0 0.0 0.0 0.0 0.0" Properties=species:S:1:pos:R:3:Z:I:1 pbc="F F F"
C      -0.72260000       0.66110840       0.77375888        6 
C       0.78394326       0.21595082       0.76789074        6 
C      -1.72889908      -0.12577184      -0.04878131        6 
C       1.18548459      -1.05689674       0.06001831        6 
O      -2.50023079      -0.88266135       0.77211759        8 
O      -1.84984112      -0.12671517      -1.24521689        8 
O       2.41524622      -1.43402510       0.49655936        8 
O       0.57835343      -1.66203656      -0.78498103        8 
C       2.97276673      -2.60486326      -0.12675260        6 
C      -3.44736755      -1.74430581       0.11396034        6 
C      -0.61192430       2.15670494       0.26177012        6 
C      -0.15440486       2.11102103      -1.18832825        6 
C       1.12482260       1.72291923      -1.19718036        6 
C       1.54244190       1.50114928       0.24262662        6 
C       0.70115163       2.58563425       0.95095891        6 
H       2.34320424      -3.47584758       0.06314039        1 
H      -2.92694432      -2.43577295      -0.55034330        1 
H       1.72519016       1.47528884      -2.06243389        1 
H       3.95277405      -2.73616605       0.32691870        1 
H       3.06419501      -2.45920891      -1.20433950        1 
H      -3.95436889      -2.28228567       0.91232190        1 
H      -4.16081828      -1.15751999      -0.46693777        1 
H       2.61018797       1.46715777       0.45010305        1 
H      -1.50592872       2.74444282       0.46790848        1 
H       1.00734207       3.59537138       0.67294239        1 
H       0.68304801       2.48718505       2.04065064        1 
H      -0.80190001       2.24206319      -2.04215241        1 
H      -1.07724279       0.65643075       1.80386554        1 
H       1.09177020       0.07202927       1.80648591        1 
