29
Lattice="0.0 0.0 0.0 0.0 0.0 0.0 0.0 0.0 0.0" Properties=species:S:1:pos:R:3:Z:I:1 pbc="F F F"
C      -0.49932936       0.76351089      -0.78602365        6 
C      -0.36037929      -0.80670322      -0.74376355        6 
C       0.45168042       1.60156679       0.04614241        6 
C       0.73264186      -1.42963021       0.09680151        6 
O       1.29442831       2.29095630      -0.76791527        8 
O       0.49756789       1.67406572       1.24576748        8 
O       1.45129514      -2.30218542      -0.65891499        8 
O       0.94857401      -1.24575325       1.26647492        8 
C       2.48999498      -3.02017065       0.03038256        6 
C       2.26436992       3.12028593      -0.10296814        6 
C      -2.01089328       0.97391599      -0.36177421        6 
C      -2.14951660       0.54621400       1.08990210        6 
C      -2.02785630      -0.78413083       1.13148082        6 
C      -1.80675243      -1.26685199      -0.29010846        6 
C      -2.65296373      -0.23845016      -1.07255837        6 
H       3.23440204      -2.32852474       0.42840272        1 
H       2.91111132       2.51467176       0.53412683        1 
H      -1.95187775      -1.40485333       2.01277078        1 
H       2.93539915      -3.67392080      -0.71646959        1 
H       2.07168763      -3.60408806       0.85189543        1 
H       2.83908964       3.58988107      -0.89846708        1 
H       1.76736955       3.87466398       0.50898299        1 
H      -1.98961870      -2.32307260      -0.48605615        1 
H      -2.38711597       1.96405277      -0.61748970        1 
H      -3.71919132      -0.32965050      -0.86058226        1 
H      -2.48640893      -0.25950253      -2.15383883        1 
H      -2.19567577       1.22286798       1.93014630        1 
H      -0.37611422       1.07942647      -1.82158172        1 
H      -0.20099200      -1.15393203      -1.76436580        1 
