29
Lattice="0.0 0.0 0.0 0.0 0.0 0.0 0.0 0.0 0.0" Properties=species:S:1:pos:R:3:Z:I:1 pbc="F F F"
C      -0.80198065       0.55993379       0.99716276        6 
C       0.75836449       0.55566650       0.80351747        6 
C      -1.54143215      -0.73034510       0.68690222        6 
C       1.37794311      -0.65518162       0.14524780        6 
O      -2.00653874      -0.79797974      -0.57080499        8 
O      -1.76862920      -1.56916803       1.52769649        8 
O       2.72117653      -0.62855448       0.30503021        8 
O       0.80612532      -1.52453818      -0.46436180        8 
C       3.44784834      -1.71506069      -0.29977756        6 
C      -2.61406970      -2.04336353      -0.95174113        6 
C      -1.23387357       1.84649661       0.19650172        6 
C      -0.90272590       1.64167966      -1.27434659        6 
C       0.42737655       1.67037595      -1.40125884        6 
C       1.01040068       1.88612183      -0.01709231        6 
C      -0.07739996       2.79021240       0.60405620        6 
H       3.11881611      -2.66929873       0.11426152        1 
H      -3.46541248      -2.27210836      -0.30883893        1 
H       1.00473520       1.45278168      -2.29024853        1 
H       4.49319949      -1.53284086      -0.06096594        1 
H       3.29542061      -1.72210510      -1.38024633        1 
H      -2.93642057      -1.90546822      -1.98188497        1 
H      -1.87767247      -2.84544236      -0.88547663        1 
H       2.04408479       2.22256300       0.03478587        1 
H      -2.24960917       2.16962111       0.42080548        1 
H      -0.13690066       3.76301998       0.11354432        1 
H       0.02295746       2.92342248       1.68527388        1 
H      -1.62779929       1.40255836      -2.03781364        1 
H      -0.99956674       0.72660550       2.05683322        1 
H       1.24445967       0.66197553       1.77553815        1 
