29
Lattice="0.0 0.0 0.0 0.0 0.0 0.0 0.0 0.0 0.0" Properties=species:S:1:pos:R:3:Z:I:1 pbc="F F F"
C       0.31666237       0.84703923       0.74622023        6 
C       0.81142642      -0.64413188       0.86286485        6 
C      -0.91763155       1.07224421      -0.09634964        6 
C      -0.02430892      -1.68884513       0.15515819        6 
O      -1.83262295       1.80466505       0.57785917        8 
O      -1.07835015       0.70317323      -1.23467524        8 
O      -1.29199856      -1.66805338       0.62657868        8 
O       0.36834878      -2.47359987      -0.67023946        8 
C      -2.22182723      -2.56163274      -0.01238585        6 
C      -3.04441435       2.10573137      -0.13808945        6 
C       1.59847509       1.57172357       0.17114458        6 
C       1.84978549       1.03703456      -1.22836304        6 
C       2.26751662      -0.22675807      -1.11051511        6 
C       2.29834857      -0.56291413       0.37080490        6 
C       2.69159387       0.81136693       0.95804172        6 
H      -2.33104556      -2.29483285      -1.06472418        1 
H      -3.55668361       1.18461669      -0.42086241        1 
H       2.42274968      -0.94417045      -1.90283296        1 
H      -3.16282153      -2.42771224       0.51713388        1 
H      -1.87884104      -3.59395925       0.06751728        1 
H      -3.65258050       2.68697683       0.55147303        1 
H      -2.82502810       2.68262924      -1.03802137        1 
H       2.89442912      -1.42701707       0.65863551        1 
H       1.55635678       2.65480592       0.28101005        1 
H       3.69841222       1.11712311       0.66978912        1 
H       2.57788514       0.87919525       2.04455086        1 
H       1.59746971       1.55716081      -2.14168145        1 
H       0.10801347       1.23832218       1.74105331        1 
H       0.78739622      -0.91868960       1.92186329        1 
