29
Lattice="0.0 0.0 0.0 0.0 0.0 0.0 0.0 0.0 0.0" Properties=species:S:1:pos:R:3:Z:I:1 pbc="F F F"
C      -0.91268358       0.60110732      -0.80896852        6 
C      -0.14952426      -0.77071003      -0.82983588        6 
C      -0.24585876       1.75702463      -0.09031973        6 
C       1.12128019      -0.87058700      -0.02037409        6 
O       0.89060182       2.11303966      -0.72695980        8 
O      -0.68487536       2.33653287       0.87093745        8 
O       1.88806239      -1.88472764      -0.48491936        8 
O       1.42267929      -0.20198907       0.93746326        8 
C       3.10113979      -2.14305270       0.24530362        6 
C       1.68175811       3.12167407      -0.07390960        6 
C      -2.31894296       0.21832874      -0.23725708        6 
C      -2.12027854      -0.22278081       1.20443770        6 
C      -1.49635679      -1.40492554       1.18278567        6 
C      -1.25594049      -1.76966305      -0.27396269        6 
C      -2.51439003      -1.15426486      -0.92494003        6 
H       3.75434820      -1.26954348       0.21988903        1 
H       2.00124274       2.76166012       0.90525157        1 
H      -1.09963529      -1.94989034       2.02889604        1 
H       3.56910423      -2.98591242      -0.25858432        1 
H       2.87655430      -2.39156127       1.28380783        1 
H       2.54024100       3.28396927      -0.72227760        1 
H       1.10952288       4.04285798       0.04460037        1 
H      -1.02811409      -2.81207820      -0.49099083        1 
H      -3.07658035       0.98080529      -0.40874413        1 
H      -3.43140329      -1.65442251      -0.61048776        1 
H      -2.46889825      -1.11416673      -2.01780217        1 
H      -2.33863453       0.39123242       2.06538555        1 
H      -1.02349471       0.92640315      -1.84776489        1 
H       0.09026555      -1.05438791      -1.85508319        1 
