29
Lattice="0.0 0.0 0.0 0.0 0.0 0.0 0.0 0.0 0.0" Properties=species:S:1:pos:R:3:Z:I:1 pbc="F F F"
C      -0.60775338       0.99605560       0.60820447        6 
C       0.62349630       0.06664534       0.96102342        6 
C      -1.81486568       0.43316489      -0.11082049        6 
C       0.71691354      -1.29885087       0.28471556        6 
O      -2.40101987      -0.52742169       0.62118975        8 
O      -2.30162931       0.90337344      -1.11302156        8 
O       1.99816974      -1.58800556      -0.04886149        8 
O      -0.17351687      -2.10048627       0.15499237        8 
C       2.22118883      -2.89235999      -0.61261716        6 
C      -3.54420522      -1.17402830       0.03962900        6 
C       0.04806163       2.24684174      -0.04473506        6 
C       0.75167099       1.79993040      -1.31449627        6 
C       1.82462416       1.08918782      -0.95190898        6 
C       1.83147755       1.01372188       0.57141639        6 
C       1.25579037       2.40432683       0.90880772        6 
H       1.90520790      -3.67007130       0.08433280        1 
H      -3.25448729      -1.68953105      -0.87723612        1 
H       2.50537047       0.54964565      -1.59457635        1 
H       3.29246468      -2.94991985      -0.79346610        1 
H       1.66775802      -3.00334766      -1.54666659        1 
H      -3.87949711      -1.89219577       0.78452116        1 
H      -4.32894635      -0.44875249      -0.18115656        1 
H       2.77257843       0.72905730       1.03553458        1 
H      -0.63915760       3.08462323      -0.14423240        1 
H       1.92585118       3.21263326       0.61187921        1 
H       0.97317509       2.52692806       1.95894573        1 
H       0.37124028       1.96246023      -2.31322048        1 
H      -1.02561921       1.31075440       1.57116648        1 
H       0.62184711      -0.14460748       2.03379466        1 
