29
Lattice="0.0 0.0 0.0 0.0 0.0 0.0 0.0 0.0 0.0" Properties=species:S:1:pos:R:3:Z:I:1 pbc="F F F"
C      -0.59145140       0.17942066       0.90829042        6 
C       0.79503798       0.83471928       0.61923262        6 
C      -0.99023567      -1.00962655       0.04826923        6 
C       1.93480858       0.02682645       0.03888254        6 
O      -2.29082000      -1.31397667       0.28983132        8 
O      -0.30316946      -1.64797395      -0.70633331        8 
O       2.02464257      -1.17952142       0.62910211        8 
O       2.79103913       0.48139520      -0.68257414        8 
C       3.08346601      -2.03536555       0.17002485        6 
C      -2.82296004      -2.43441000      -0.43822897        6 
C      -1.57069238       1.39135930       0.54382495        6 
C      -1.53821487       1.45964507      -0.98001700        6 
C      -0.32774260       1.90465063      -1.33577433        6 
C       0.45031077       2.19058469      -0.06364927        6 
C      -0.70309664       2.62247312       0.87716686        6 
H       2.94584300      -2.26223437      -0.88837670        1 
H      -2.25549647      -3.33995477      -0.21789265        1 
H       0.08416206       1.96602677      -2.33382781        1 
H       3.00078366      -2.94284332       0.76429685        1 
H       4.05574113      -1.56303975       0.31857532        1 
H      -3.85265099      -2.53640412      -0.10195170        1 
H      -2.78779273      -2.24363994      -1.51228362        1 
H       1.30758362       2.85257531      -0.15934356        1 
H      -2.55087811       1.30794430       1.00624751        1 
H      -1.17664974       3.55363689       0.56263734        1 
H      -0.41026855       2.69274122       1.92875861        1 
H      -2.31496638       1.07837634      -1.63000768        1 
H      -0.69637601      -0.11286533       1.95402189        1 
H       1.20454368       1.09154236       1.60552150        1 
