29
Lattice="0.0 0.0 0.0 0.0 0.0 0.0 0.0 0.0 0.0" Properties=species:S:1:pos:R:3:Z:I:1 pbc="F F F"
C      -0.84420956       0.60685198      -0.83996592        6 
C      -0.27264099      -0.85442438      -0.74158868        6 
C      -0.06140390       1.73547331      -0.20494055        6 
C       0.96958030      -1.05484684       0.09994474        6 
O       1.25626314       1.62342936      -0.47229006        8 
O      -0.54961014       2.68532373       0.35630175        8 
O       1.91512975      -1.72075243      -0.60143045        8 
O       1.11286735      -0.72629011       1.25233448        8 
C       3.13658127      -2.00205395       0.10435890        6 
C       2.10786068       2.64120269       0.08328876        6 
C      -2.31880087       0.46137992      -0.32917806        6 
C      -2.24736150       0.12481971       1.15068183        6 
C      -1.76879173      -1.11884052       1.25620847        6 
C      -1.51756226      -1.63917436      -0.15170885        6 
C      -2.65689291      -0.92744111      -0.91704584        6 
H       3.60191732      -1.07491401       0.44264949        1 
H       2.05253458       2.62010325       1.17250071        1 
H      -1.47826568      -1.63158319       2.16200405        1 
H       3.77522110      -2.51343682      -0.61255425        1 
H       2.94159243      -2.63959549       0.96837378        1 
H       3.11221873       2.39318326      -0.25309122        1 
H       1.81262097       3.62740671      -0.27751004        1 
H      -1.43047929      -2.71930211      -0.26580530        1 
H      -2.95405334       1.29954588      -0.60728824        1 
H      -3.64426957      -1.28182595      -0.61708697        1 
H      -2.55730795      -0.98527403      -2.00570708        1 
H      -2.42594187       0.83196510       1.94813010        1 
H      -0.86686162       0.87246414      -1.90368584        1 
H      -0.05787524      -1.23194840      -1.74023403        1 
