29
Lattice="0.0 0.0 0.0 0.0 0.0 0.0 0.0 0.0 0.0" Properties=species:S:1:pos:R:3:Z:I:1 pbc="F F F"
C      -0.91567051       0.39936095       0.96765588        6 
C       0.60438866       0.68582856       0.73908492        6 
C      -1.57637688      -0.88926076       0.51613805        6 
C       1.55318989      -0.45982791       0.46118432        6 
O      -1.09590059      -1.37582705      -0.63612450        8 
O      -2.54603096      -1.34689646       1.07874282        8 
O       2.76379061       0.02815791       0.09406663        8 
O       1.32531697      -1.63797919       0.56390026        8 
C       3.78856427      -0.95180558      -0.15243975        6 
C      -1.70272486      -2.58354854      -1.12268822        6 
C      -1.57349550       1.61933626       0.16956434        6 
C      -1.31789644       1.37541053      -1.30977330        6 
C      -0.01112219       1.55200341      -1.52962460        6 
C       0.62683003       1.93918180      -0.20930119        6 
C      -0.53622338       2.73025384       0.43776336        6 
H       3.98012967      -1.54015111       0.74643323        1 
H      -2.76478553      -2.42938374      -1.32182390        1 
H       0.53225068       1.35064391      -2.44325355        1 
H       4.67221990      -0.38249325      -0.43274426        1 
H       3.49060055      -1.62132958      -0.96092931        1 
H      -1.17002000      -2.82373884      -2.04033475        1 
H      -1.58463568      -3.38496994      -0.39219902        1 
H       1.60175439       2.41779557      -0.25808495        1 
H      -2.60608198       1.79931964       0.46297768        1 
H      -0.76832905       3.65001208      -0.10125675        1 
H      -0.38486326       2.94839596       1.49898780        1 
H      -2.05179494       0.99612873      -2.00780044        1 
H      -1.16652811       0.49556797       2.02295083        1 
H       0.98320424       1.05505258       1.70200004        1 
