29
Lattice="0.0 0.0 0.0 0.0 0.0 0.0 0.0 0.0 0.0" Properties=species:S:1:pos:R:3:Z:I:1 pbc="F F F"
C      -0.90059018      -0.00916355      -1.00313700        6 
C       0.34588536      -0.91894521      -0.67217912        6 
C      -0.96160805       1.47458660      -0.69842981        6 
C       1.56232162      -0.37429558       0.05093957        6 
O      -0.57897956       1.79642765       0.54103127        8 
O      -1.40782870       2.27749536      -1.48930169        8 
O       2.68038780      -0.67446351      -0.66331371        8 
O       1.60189303       0.20425674       1.10562673        8 
C       3.92818560      -0.27130991      -0.07269452        6 
C      -0.66202900       3.18555614       0.90042256        6 
C      -2.09185599      -0.80437957      -0.31525896        6 
C      -1.87319280      -0.76259464       1.18638341        6 
C      -0.81591769      -1.53264819       1.46171300        6 
C      -0.31471048      -2.10611677       0.14866192        6 
C      -1.64389255      -2.24895588      -0.62382467        6 
H       3.96062349       0.81263628       0.04947821        1 
H      -1.69790771       3.52806113       0.86894383        1 
H      -0.31121541      -1.63273622       2.41186382        1 
H       4.69803702      -0.60129210      -0.76690911        1 
H       4.06109934      -0.74381757       0.90208459        1 
H      -0.26552565       3.24176302       1.91154824        1 
H      -0.06472296       3.79224974       0.21812876        1 
H       0.32770935      -2.98392850       0.20941212        1 
H      -3.06754168      -0.48833779      -0.68205460        1 
H      -2.30540939      -2.99356026      -0.17863270        1 
H      -1.51663555      -2.45439209      -1.69071583        1 
H      -2.40286385      -0.11391878       1.86980257        1 
H      -1.05747722      -0.05420663      -2.08119708        1 
H       0.71129106      -1.32399237      -1.61527529        1 
