29
Lattice="0.0 0.0 0.0 0.0 0.0 0.0 0.0 0.0 0.0" Properties=species:S:1:pos:R:3:Z:I:1 pbc="F F F"
C       0.31753452       0.91166051       0.93450999        6 
C       1.02171359      -0.49805342       0.86716959        6 
C      -1.18225681       0.97481667       0.72529676        6 
C       0.32166419      -1.71929315       0.30427416        6 
O      -1.53225864       1.38912761      -0.50866517        8 
O      -1.98465102       0.74358273       1.59797751        8 
O      -0.92896558      -1.49432104      -0.12760707        8 
O       0.86275883      -2.79837446       0.23619533        8 
C      -1.63412769      -2.62496437      -0.67158582        6 
C      -2.94268111       1.44415365      -0.77559219        6 
C       1.22603233       1.79381945       0.00628425        6 
C       1.16562950       1.23576318      -1.40728060        6 
C       1.81801828       0.06874480      -1.41168127        6 
C       2.31179589      -0.18199245       0.00424330        6 
C       2.60973002       1.26322335       0.45153705        6 
H      -1.12372248      -2.99901063      -1.56024655        1 
H      -3.43349238       2.15656117      -0.11059604        1 
H       1.88959306      -0.64336683      -2.22344310        1 
H      -2.62417387      -2.25252361      -0.92475534        1 
H      -1.70161501      -3.42243508       0.06919854        1 
H      -3.03077750       1.76373133      -1.81203097        1 
H      -3.39206221       0.45959388      -0.63689243        1 
H       3.09037116      -0.93145621       0.12592546        1 
H       1.03856371       2.86153877       0.11032592        1 
H       3.43162866       1.70833097      -0.11134066        1 
H       2.79629269       1.36479912       1.52459486        1 
H       0.59809084       1.67405220      -2.21520853        1 
H       0.44045971       1.26689851       1.95983660        1 
H       1.33378279      -0.79219514       1.87189291        1 
