29
Lattice="0.0 0.0 0.0 0.0 0.0 0.0 0.0 0.0 0.0" Properties=species:S:1:pos:R:3:Z:I:1 pbc="F F F"
C      -0.84782143       0.36687401       0.99091365        6 
C       0.66317943       0.61930796       0.66561060        6 
C      -1.66157556      -0.83432648       0.53931790        6 
C       1.64539143      -0.49196602       0.34392359        6 
O      -1.12686129      -1.54533193      -0.45413838        8 
O      -2.78420768      -1.01696275       0.96046416        8 
O       2.88171659       0.06636847       0.21276827        8 
O       1.45583711      -1.67194457       0.21718239        8 
C       3.95237944      -0.84471309      -0.08861507        6 
C      -1.92885305      -2.61625856      -0.97871943        6 
C      -1.52114541       1.62573353       0.25689253        6 
C      -1.40287455       1.34124241      -1.23371636        6 
C      -0.11260100       1.45649609      -1.56497510        6 
C       0.64672806       1.85265078      -0.31357470        6 
C      -0.42737863       2.69897167       0.40986476        6 
H       4.05499987      -1.59113711       0.70074780        1 
H      -2.84026669      -2.22341553      -1.43407247        1 
H       0.34369133       1.21247771      -2.51524970        1 
H       4.84765300      -0.22969068      -0.15230935        1 
H       3.76818807      -1.35256050      -1.03697782        1 
H      -1.30365358      -3.10300485      -1.72373515        1 
H      -2.19739328      -3.31580729      -0.18631650        1 
H       1.63136383       2.29161331      -0.45310492        1 
H      -2.51747292       1.83915741       0.63651145        1 
H      -0.67322253       3.61432655      -0.13072259        1 
H      -0.17510010       2.93580469       1.44720091        1 
H      -2.20807952       0.97524383      -1.85701695        1 
H      -1.01848116       0.45119641       2.06416768        1 
H       1.08798995       1.02049089       1.59385411        1 
