29
Lattice="0.0 0.0 0.0 0.0 0.0 0.0 0.0 0.0 0.0" Properties=species:S:1:pos:R:3:Z:I:1 pbc="F F F"
C       0.19747242       0.94158200       0.94708811        6 
C       1.09498666      -0.34978063       0.89103729        6 
C      -1.29294069       0.74884094       0.75840945        6 
C       0.54782911      -1.65845750       0.36469283        6 
O      -1.75460457       1.27086852      -0.39469377        8 
O      -2.00664077       0.24138031       1.59038618        8 
O      -0.57075653      -1.52274209      -0.36833055        8 
O       1.10819345      -2.71643986       0.53105670        8 
C      -1.12799771      -2.73086652      -0.91648821        6 
C      -3.16102023       1.10307027      -0.64057962        6 
C       0.94763635       1.93495775      -0.00662309        6 
C       0.92857631       1.35915282      -1.41240878        6 
C       1.73884437       0.29661422      -1.42835470        6 
C       2.30098091       0.13122195      -0.02620545        6 
C       2.40519071       1.61011992       0.40282207        6 
H      -0.41885305      -3.20303433      -1.59806478        1 
H      -3.74935072       1.59842934       0.13333952        1 
H       1.87814987      -0.41013769      -2.23600410        1 
H      -2.02348660      -2.41980909      -1.44983363        1 
H      -1.37905907      -3.42838155      -0.11661505        1 
H      -3.34327730       1.55925795      -1.61139787        1 
H      -3.41727020       0.04261363      -0.65894046        1 
H       3.18097262      -0.50008158       0.07865158        1 
H       0.61375104       2.96626943       0.09591481        1 
H       3.13978699       2.16052897      -0.18688062        1 
H       2.60617753       1.74742037       1.46928083        1 
H       0.27546932       1.69746516      -2.20350640        1 
H       0.27315879       1.32757965       1.96706981        1 
H       1.48177804      -0.57786486       1.88460319        1 
