29
Lattice="0.0 0.0 0.0 0.0 0.0 0.0 0.0 0.0 0.0" Properties=species:S:1:pos:R:3:Z:I:1 pbc="F F F"
C       0.28539145       1.03457145       0.67734237        6 
C       0.76257561      -0.43529811       1.01280524        6 
C      -1.00416588       1.21515207      -0.09895112        6 
C      -0.09498952      -1.63066457       0.65545676        6 
O      -2.01246236       1.53444395       0.75165815        8 
O      -1.16953871       1.07891812      -1.28388982        8 
O      -0.49310749      -1.63896840      -0.62532893        8 
O      -0.35678161      -2.51432629       1.44050446        8 
C      -1.28832554      -2.75943018      -1.04847875        6 
C      -3.31479327       1.67944260       0.15690792        6 
C       1.54044078       1.62634109      -0.07798608        6 
C       1.68408328       0.89030188      -1.39911499        6 
C       2.08422181      -0.35466158      -1.12462578        6 
C       2.21253046      -0.47344424       0.38150044        6 
C       2.67575138       0.95957060       0.73146683        6 
H      -0.72732184      -3.68943868      -0.94150461        1 
H      -3.61805871       0.74891582      -0.32591107        1 
H       2.17789166      -1.17697644      -1.82010578        1 
H      -1.52045926      -2.56659653      -2.09346744        1 
H      -2.20293393      -2.82426904      -0.45692219        1 
H      -3.98504794       1.91940217       0.97948159        1 
H      -3.31203480       2.48157119      -0.58290342        1 
H       2.80791848      -1.30291736       0.76123472        1 
H       1.52920406       2.71465525      -0.12942311        1 
H       3.66309997       1.18573506       0.32725377        1 
H       2.65002591       1.18409680       1.80202064        1 
H       1.38499369       1.28296566      -2.35944501        1 
H       0.15435285       1.55775092       1.62461305        1 
H       0.86842118      -0.51037516       2.09516830        1 
