29
Lattice="0.0 0.0 0.0 0.0 0.0 0.0 0.0 0.0 0.0" Properties=species:S:1:pos:R:3:Z:I:1 pbc="F F F"
C      -1.11056049       0.01381364      -0.93418006        6 
C       0.13944876      -0.93234198      -0.88770632        6 
C      -1.04096229       1.42607065      -0.38941632        6 
C       1.49551839      -0.28302813      -0.71559116        6 
O      -0.01691525       1.63587003       0.45323032        8 
O      -1.89692569       2.25083249      -0.61322882        8 
O       2.22843426      -0.87594444       0.24981141        8 
O       1.89917641       0.63068188      -1.39237667        8 
C       3.54366012      -0.33082346       0.46205304        6 
C       0.06597620       2.94547408       1.04104246        6 
C      -2.15495792      -0.81237626      -0.05595103        6 
C      -1.65586304      -0.74065343       1.38062333        6 
C      -0.54405196      -1.47955987       1.45689016        6 
C      -0.29601446      -2.08100760       0.08349611        6 
C      -1.75168032      -2.25962935      -0.41037882        6 
H       4.14600136      -0.41998507      -0.44322635        1 
H      -0.82719455       3.15603627       1.63142644        1 
H       0.13577665      -1.56147653       2.29318548        1 
H       3.97472381      -0.91894844       1.26935654        1 
H       3.47646367       0.72069507       0.74497562        1 
H       0.94966383       2.92217769       1.67480606        1 
H       0.17194075       3.70238103       0.26297886        1 
H       0.35914234      -2.94887001       0.04552919        1 
H      -3.18333875      -0.50451937      -0.23353146        1 
H      -2.30828765      -2.99811733       0.16861653        1 
H      -1.82944734      -2.49103993      -1.47710483        1 
H      -2.06757449      -0.09257512       2.14305055        1 
H      -1.49083917       0.10417446      -1.95136803        1 
H       0.21522997      -1.37537301      -1.88822150        1 
