29
Lattice="0.0 0.0 0.0 0.0 0.0 0.0 0.0 0.0 0.0" Properties=species:S:1:pos:R:3:Z:I:1 pbc="F F F"
C      -0.77946216       0.50048689       0.83135157        6 
C       0.78161515       0.46416685       0.91516190        6 
C      -1.44614523      -0.57732068       0.00671611        6 
C       1.44062547      -0.85948147       0.59197665        6 
O      -2.74320104      -0.70252714       0.37543940        8 
O      -0.94796317      -1.21501703      -0.88582317        8 
O       2.52160972      -0.71227007      -0.20022829        8 
O       1.06721752      -1.92177603       1.02412839        8 
C       3.19752929      -1.93091861      -0.56452014        6 
C      -3.51804850      -1.66035014      -0.36860728        6 
C      -1.01943038       1.91361987       0.12953885        6 
C      -0.53850498       1.76945752      -1.30628138        6 
C       0.79362595       1.66554955      -1.27618770        6 
C       1.23165650       1.76695208       0.17352149        6 
C       0.14906118       2.72917981       0.72309042        6 
H       3.58363765      -2.43428827       0.32328923        1 
H      -3.08466128      -2.65689772      -0.27249798        1 
H       1.45096680       1.42894371      -2.10102039        1 
H       4.01206812      -1.62643643      -1.21808346        1 
H       2.51018852      -2.59762080      -1.08667673        1 
H      -4.51365880      -1.63075043       0.06885040        1 
H      -3.55460029      -1.38608556      -1.42444384        1 
H       2.27353203       2.02688125       0.34783760        1 
H      -2.03124781       2.28828551       0.27359440        1 
H       0.21548433       3.72914082       0.29144494        1 
H       0.13068915       2.79608369       1.81506927        1 
H      -1.18373921       1.62437422      -2.16247691        1 
H      -1.23260533       0.50490153       1.82152497        1 
H       1.03142108       0.60147473       1.97453932        1 
