29
Lattice="0.0 0.0 0.0 0.0 0.0 0.0 0.0 0.0 0.0" Properties=species:S:1:pos:R:3:Z:I:1 pbc="F F F"
C      -0.70376814       0.54589787      -0.99667898        6 
C      -0.53586710      -0.98926820      -0.70516088        6 
C       0.36086500       1.51202768      -0.52552452        6 
C       0.75108095      -1.46125335      -0.06742129        6 
O       0.82348086       1.22867012       0.70803928        8 
O       0.72158997       2.47285733      -1.16369651        8 
O       1.81895267      -1.00635420      -0.75940025        8 
O       0.83512956      -2.23288801       0.85579245        8 
C       3.11004268      -1.40671966      -0.26949130        6 
C       1.83115485       2.11187644       1.22831282        6 
C      -2.12221874       0.83640039      -0.33816609        6 
C      -1.98229438       0.65806243       1.16516198        6 
C      -1.81256217      -0.64620870       1.40484533        6 
C      -1.84320326      -1.36573225       0.06652299        6 
C      -2.85008231      -0.47781588      -0.70332140        6 
H       3.26354428      -1.02792725       0.74257002        1 
H       1.43910907       3.12548547       1.32541205        1 
H      -1.56862620      -1.11801617       2.34596816        1 
H       3.82995191      -0.96699877      -0.95620543        1 
H       3.19784187      -2.49409589      -0.26220253        1 
H       2.09399267       1.70728415       2.20333796        1 
H       2.70043824       2.12755601       0.56868189        1 
H      -2.03151193      -2.43702723       0.09765277        1 
H      -2.55927189       1.77217488      -0.68338721        1 
H      -3.85718265      -0.52603875      -0.28649793        1 
H      -2.88553551      -0.67762062      -1.77892098        1 
H      -1.90647937       1.46867182       1.87701011        1 
H      -0.78215430       0.71518437      -2.06982836        1 
H      -0.54926380      -1.49822403      -1.67593057        1 
