29
Lattice="0.0 0.0 0.0 0.0 0.0 0.0 0.0 0.0 0.0" Properties=species:S:1:pos:R:3:Z:I:1 pbc="F F F"
C       0.55533506       0.99909547       0.73419799        6 
C       0.69672994      -0.55416658       1.01213317        6 
C      -0.66129310       1.42444384      -0.06296571        6 
C      -0.48485644      -1.42388897       0.64457564        6 
O      -1.77684160       1.27876376       0.68758487        8 
O      -0.67978522       1.81770067      -1.20223607        8 
O      -0.69360073      -1.49212087      -0.68549309        8 
O      -1.19020835      -1.97893890       1.45332268        8 
C      -1.83856711      -2.25119712      -1.11130852        6 
C      -3.02557118       1.56144334       0.03142217        6 
C       1.92013612       1.34064995       0.03578513        6 
C       1.91330259       0.67854869      -1.33371780        6 
C       2.00562536      -0.64042557      -1.14226506        6 
C       2.08849681      -0.88528545       0.35340806        6 
C       2.86425501       0.37987916       0.79450248        6 
H      -1.74624178      -3.29267053      -0.79965372        1 
H      -3.15039574       0.91629011      -0.84008159        1 
H       1.91627953      -1.41614496      -1.88954331        1 
H      -1.84940867      -2.17337386      -2.19631391        1 
H      -2.75159921      -1.83133355      -0.68579019        1 
H      -3.79480419       1.35711804       0.77271980        1 
H      -3.06436996       2.60411953      -0.28745724        1 
H       2.48362791      -1.85056817       0.66919741        1 
H       2.15719248       2.40337922       0.05580053        1 
H       3.88253415       0.40172205       0.40399011        1 
H       2.87883919       0.53214418       1.87835388        1 
H       1.72931815       1.19493739      -2.26362543        1 
H       0.48306006       1.50230417       1.70105782        1 
H       0.79321779      -0.69112108       2.08914379        1 
