29
Lattice="0.0 0.0 0.0 0.0 0.0 0.0 0.0 0.0 0.0" Properties=species:S:1:pos:R:3:Z:I:1 pbc="F F F"
C      -0.57740758       0.15149538       0.89556362        6 
C       0.81610139       0.79061226       0.57134718        6 
C      -1.06274205      -1.05723474       0.09547722        6 
C       2.01596108       0.02814908       0.04369073        6 
O      -2.41769951      -1.13890844       0.20954917        8 
O      -0.41968904      -1.90045409      -0.46988206        8 
O       2.02631881      -1.25304890       0.43130870        8 
O       2.97193224       0.57911188      -0.45515078        8 
C       3.18588871      -2.02316932       0.07352677        6 
C      -3.03476464      -2.27193216      -0.42361072        6 
C      -1.53715805       1.38346233       0.54941957        6 
C      -1.54337368       1.43157411      -0.97685674        6 
C      -0.33586442       1.85314274      -1.36925470        6 
C       0.47694039       2.14447402      -0.12021357        6 
C      -0.64522378       2.60622602       0.84174996        6 
H       3.31809711      -2.02640163      -1.00925170        1 
H      -2.64051044      -3.20395623      -0.01520655        1 
H       0.04840767       1.90202015      -2.37940510        1 
H       2.98368645      -3.02937390       0.43349259        1 
H       4.08117286      -1.61385879       0.54510643        1 
H      -4.09788668      -2.18022519      -0.21046057        1 
H      -2.85780880      -2.25220451      -1.50056687        1 
H       1.34567020       2.78638197      -0.24216790        1 
H      -2.50707882       1.32689248       1.03539793        1 
H      -1.11523230       3.53830763       0.52443245        1 
H      -0.32341192       2.69060695       1.88366683        1 
H      -2.34556338       1.05920501      -1.59949561        1 
H      -0.64577590      -0.12477843       1.94994661        1 
H       1.21548225       1.07408284       1.55609936        1 
