29
Lattice="0.0 0.0 0.0 0.0 0.0 0.0 0.0 0.0 0.0" Properties=species:S:1:pos:R:3:Z:I:1 pbc="F F F"
C      -0.82026709       0.62545144       0.96056408        6 
C       0.74335927       0.51392379       0.85225044        6 
C      -1.64270356      -0.61284516       0.64847010        6 
C       1.31589969      -0.74989254       0.24888564        6 
O      -1.95141956      -0.73887080      -0.65334335        8 
O      -2.05197203      -1.35981064       1.50591329        8 
O       2.66615049      -0.67162901       0.21629470        8 
O       0.70345487      -1.70702534      -0.15366363        8 
C       3.35111441      -1.81218139      -0.33435229        6 
C      -2.62997168      -1.95109039      -1.02169565        6 
C      -1.12031814       1.91338184       0.10402780        6 
C      -0.70798592       1.64981537      -1.33660608        6 
C       0.62719016       1.60098850      -1.37722911        6 
C       1.13193265       1.81354884       0.03899747        6 
C       0.06318583       2.79622657       0.56731487        6 
H       3.13812348      -2.70566209       0.25461134        1 
H      -3.58433155      -2.03455642      -0.49928694        1 
H       1.24699040       1.33096916      -2.22220808        1 
H       4.40923778      -1.56481693      -0.28713374        1 
H       3.04155536      -1.98207409      -1.36678495        1 
H      -2.78494136      -1.88150311      -2.09650521        1 
H      -2.00448446      -2.81123260      -0.77914248        1 
H       2.17832586       2.08765152       0.15177359        1 
H      -2.12686645       2.30166242       0.25382156        1 
H       0.09570203       3.75830632       0.05349498        1 
H       0.10012048       2.95163588       1.64951434        1 
H      -1.39565989       1.43180887      -2.14013974        1 
H      -1.06216531       0.84204604       2.00161056        1 
H       1.17851823       0.59169545       1.85234186        1 
