29
Lattice="0.0 0.0 0.0 0.0 0.0 0.0 0.0 0.0 0.0" Properties=species:S:1:pos:R:3:Z:I:1 pbc="F F F"
C      -0.84377044       0.15694980      -1.04221940        6 
C       0.12093989      -1.02654167      -0.63831978        6 
C      -0.45137501       1.59083045      -0.73922299        6 
C       1.39481743      -0.71977825       0.12142563        6 
O      -0.39945586       1.87192522       0.56862679        8 
O      -0.26488298       2.41708443      -1.60552678        8 
O       2.46632122      -1.17435420      -0.57699993        8 
O       1.49574196      -0.17921560       1.19363499        8 
C       3.75062589      -0.97306347       0.03951903        6 
C      -0.01364249       3.21034184       0.92334573        6 
C      -2.22165412      -0.30697532      -0.41337180        6 
C      -2.08875430      -0.30188291       1.09975346        6 
C      -1.26874468      -1.30200697       1.43729909        6 
C      -0.84562908      -1.99653089       0.15596447        6 
C      -2.12642016      -1.82414957      -0.69213369        6 
H       3.93416487       0.09058513       0.19957881        1 
H      -0.74067194       3.93191026       0.54651663        1 
H      -0.86341783      -1.51228022       2.41653063        1 
H       4.47538620      -1.38572388      -0.65888267        1 
H       3.80117397      -1.49257315       0.99790118        1 
H       0.01564318       3.22108506       2.01040354        1 
H       0.96925066       3.44345995       0.51176400        1 
H      -0.44073245      -3.00343585       0.25509878        1 
H      -3.07345914       0.22845624      -0.83168065        1 
H      -2.97368366      -2.37674588      -0.28358206        1 
H      -1.99519208      -2.07498647      -1.74918227        1 
H      -2.49068137       0.46092330       1.75059475        1 
H      -0.94184693       0.14144295      -2.12758248        1 
H       0.42613056      -1.52933827      -1.55537021        1 
