29
Lattice="0.0 0.0 0.0 0.0 0.0 0.0 0.0 0.0 0.0" Properties=species:S:1:pos:R:3:Z:I:1 pbc="F F F"
C      -0.71818471       0.17389465       0.89218281        6 
C       0.68013180       0.87443088       0.71673043        6 
C      -0.88841915      -1.19626878       0.27283593        6 
C       1.72024918       0.14357662      -0.11447324        6 
O      -2.19870301      -1.52323472       0.20924982        8 
O      -0.00718933      -1.93316872      -0.09348382        8 
O       2.61401171      -0.47246931       0.68870155        8 
O       1.77058780       0.10327269      -1.31803868        8 
C       3.55047107      -1.33766225       0.02166042        6 
C      -2.50141238      -2.82063421      -0.33715097        6 
C      -1.73741491       1.26780221       0.39868567        6 
C      -1.52846130       1.41065447      -1.09802986        6 
C      -0.33760295       1.98952333      -1.28241746        6 
C       0.26318927       2.25879740       0.09076539        6 
C      -1.02390793       2.54083819       0.90206568        6 
H       3.00974023      -2.11726079      -0.51673877        1 
H      -2.05954088      -3.60675900       0.27717573        1 
H       0.17911057       2.13831913      -2.21860636        1 
H       4.16312475      -1.76739143       0.81139301        1 
H       4.16722997      -0.77212754      -0.67874232        1 
H      -3.58682859      -2.89235533      -0.32768322        1 
H      -2.11864935      -2.90256736      -1.35539172        1 
H       1.05842449       3.00241050       0.12944600        1 
H      -2.75477236       1.08673880       0.73764376        1 
H      -1.52754919       3.45391657       0.58139159        1 
H      -0.86772734       2.56255681       1.98512520        1 
H      -2.17999234       0.99386748      -1.85439210        1 
H      -0.88516601       0.01060576       1.96340448        1 
H       1.11318169       1.03754471       1.70347097        1 
