29
Lattice="0.0 0.0 0.0 0.0 0.0 0.0 0.0 0.0 0.0" Properties=species:S:1:pos:R:3:Z:I:1 pbc="F F F"
C      -0.69937873       0.56190431      -1.01024526        6 
C      -0.55340273      -0.98991531      -0.72753915        6 
C       0.47847627       1.43403791      -0.63251476        6 
C       0.67024426      -1.41402659       0.06057574        6 
O       0.69064461       1.48086203       0.69775445        8 
O       1.17991135       2.00346586      -1.43449464        8 
O       1.77957239      -1.26132718      -0.69706974        8 
O       0.69510985      -1.82006767       1.19524801        8 
C       3.03205255      -1.56807165      -0.05961936        6 
C       1.84169944       2.22596675       1.13149741        6 
C      -2.09728535       0.88862849      -0.36068436        6 
C      -2.01647492       0.65890627       1.13852505        6 
C      -1.91339952      -0.65761038       1.34192377        6 
C      -1.91488244      -1.33272271      -0.02257243        6 
C      -2.86313594      -0.38554910      -0.79371392        6 
H       3.16107177      -0.95972628       0.83720113        1 
H       1.74922108       3.27517421       0.84710754        1 
H      -1.73082527      -1.16710239       2.27592893        1 
H       3.79662372      -1.33413042      -0.79685749        1 
H       3.07224943      -2.62313081       0.21598400        1 
H       1.86293420       2.11978991       2.21383063        1 
H       2.74882082       1.81457627       0.68553708        1 
H      -2.14606659      -2.39700394      -0.03480821        1 
H      -2.49624287       1.84861340      -0.68753976        1 
H      -3.88354082      -0.41161196      -0.40901287        1 
H      -2.87105824      -0.54824757      -1.87631325        1 
H      -1.93963548       1.44327336       1.87791429        1 
H      -0.78789638       0.69817749      -2.08820617        1 
H      -0.48817778      -1.49731952      -1.69300243        1 
