29
Lattice="0.0 0.0 0.0 0.0 0.0 0.0 0.0 0.0 0.0" Properties=species:S:1:pos:R:3:Z:I:1 pbc="F F F"
C      -0.74372220       0.45690508      -1.00760276        6 
C      -0.42416214      -1.04831886      -0.68195929        6 
C       0.15106693       1.56919755      -0.50616086        6 
C       0.90195706      -1.36929170      -0.02960231        6 
O       0.89247327       1.22476086       0.56145530        8 
O       0.14119732       2.68297681      -0.97639964        8 
O       1.91851717      -1.06044758      -0.86635412        8 
O       1.05791933      -1.88980604       1.04652437        8 
C       3.24367115      -1.26881747      -0.35186928        6 
C       1.70871085       2.25669807       1.14044224        6 
C      -2.20139527       0.61623958      -0.38874077        6 
C      -2.04912481       0.52899258       1.12120455        6 
C      -1.72953752      -0.73431155       1.42117496        6 
C      -1.68356425      -1.51904385       0.11960948        6 
C      -2.77854764      -0.78432753      -0.69006272        6 
H       3.39260409      -0.68057649       0.55536970        1 
H       1.08701913       3.08082302       1.49328105        1 
H      -1.43170259      -1.12898984       2.38162413        1 
H       3.91764305      -0.93640359      -1.13858922        1 
H       3.40791140      -2.32358207      -0.12613332        1 
H       2.22340480       1.78205333       1.97304255        1 
H       2.42265384       2.63350660       0.40650134        1 
H      -1.75803421      -2.60156267       0.20692351        1 
H      -2.72626306       1.48405046      -0.78330819        1 
H      -3.77631215      -0.92125993      -0.27053988        1 
H      -2.78643859      -1.03882234      -1.75457930        1 
H      -2.06803527       1.37736815       1.79251565        1 
H      -0.80867801       0.60175664      -2.08633757        1 
H      -0.40363710      -1.57859012      -1.63922638        1 
