29
Lattice="0.0 0.0 0.0 0.0 0.0 0.0 0.0 0.0 0.0" Properties=species:S:1:pos:R:3:Z:I:1 pbc="F F F"
C       0.46719852       1.03586072       0.65025900        6 
C       0.69929297      -0.47014527       1.01086925        6 
C      -0.85988361       1.48526884       0.08649496        6 
C      -0.24170591      -1.54353171       0.50922464        6 
O      -1.88936166       0.88460986       0.72086419        8 
O      -1.00202721       2.39218585      -0.69756372        8 
O      -0.81944674      -1.25199600      -0.67142961        8 
O      -0.37711484      -2.60893202       1.06547397        8 
C      -1.67267948      -2.26496938      -1.22932536        6 
C      -3.20898344       1.29019571       0.31931286        6 
C       1.73907580       1.44039952      -0.15985714        6 
C       1.74959570       0.63267033      -1.44404718        6 
C       2.00680972      -0.63875784      -1.12070018        6 
C       2.15277820      -0.70926752       0.39128974        6 
C       2.79807667       0.66728602       0.66331193        6 
H      -1.12205568      -3.19574630      -1.37411277        1 
H      -3.36439236       1.07848299      -0.73997386        1 
H       1.98168884      -1.49790788      -1.77785391        1 
H      -2.00980304      -1.86599474      -2.18371382        1 
H      -2.52156470      -2.45203497      -0.56920058        1 
H      -3.89094934       0.70269366       0.93028829        1 
H      -3.35524268       2.35679380       0.49654129        1 
H       2.63883016      -1.59479075       0.79652463        1 
H       1.85857339       2.51648746      -0.26354291        1 
H       3.79942131       0.74547513       0.23717817        1 
H       2.82261294       0.94287786       1.72184308        1 
H       1.47466874       1.02174937      -2.41472342        1 
H       0.50678823       1.58283943       1.60122227        1 
H       0.74909943      -0.60672900       2.09017751        1 
