29
Lattice="0.0 0.0 0.0 0.0 0.0 0.0 0.0 0.0 0.0" Properties=species:S:1:pos:R:3:Z:I:1 pbc="F F F"
C      -0.75959245       0.17806212      -1.08783178        6 
C      -0.02658920      -1.13542990      -0.58338293        6 
C      -0.04723047       1.47120517      -0.73255165        6 
C       1.23321752      -0.89661572       0.22153022        6 
O      -0.48300187       2.04291870       0.39838203        8 
O       0.81815211       1.95171050      -1.42959399        8 
O       2.31984831      -1.29356546      -0.47534351        8 
O       1.29548212      -0.42240123       1.33052987        8 
C       3.59364835      -1.06591953       0.15564324        6 
C       0.22038609       3.22304328       0.82667789        6 
C      -2.22725260      -0.04170604      -0.55627486        6 
C      -2.21355055      -0.00266591       0.96409799        6 
C      -1.58475523      -1.10011479       1.39288741        6 
C      -1.17722974      -1.90100768       0.16776196        6 
C      -2.35270660      -1.56712136      -0.78292059        6 
H       3.74415374       0.00131907       0.32503030        1 
H       0.17733681       3.99613064       0.05822184        1 
H      -1.29954088      -1.33775597       2.40753772        1 
H       4.33441902      -1.45005472      -0.54199255        1 
H       3.64935611      -1.59477076       1.10830173        1 
H      -0.28740042       3.54792598       1.73199566        1 
H       1.26150324       2.97817915       1.04048130        1 
H      -0.94667634      -2.95407541       0.32771635        1 
H      -2.95678654       0.59844731      -1.05144809        1 
H      -3.30355156      -1.96679091      -0.42755758        1 
H      -2.18506080      -1.87825855      -1.81907804        1 
H      -2.54872220       0.83346100       1.55905281        1 
H      -0.75902050       0.15963182      -2.17842402        1 
H       0.26579883      -1.71581910      -1.45803217        1 
