29
Lattice="0.0 0.0 0.0 0.0 0.0 0.0 0.0 0.0 0.0" Properties=species:S:1:pos:R:3:Z:I:1 pbc="F F F"
C      -0.60881295       0.69527516      -0.96998733        6 
C      -0.71942447      -0.87037356      -0.80528395        6 
C       0.70470094       1.38024112      -0.64734421        6 
C       0.39510680      -1.67361707      -0.16322630        6 
O       0.88984204       1.58752525       0.67206439        8 
O       1.48952373       1.74581557      -1.48929709        8 
O       1.60068119      -1.09064627      -0.27633331        8 
O       0.23172850      -2.77191436       0.31330924        8 
C       2.72273967      -1.83141466       0.23712089        6 
C       2.14318700       2.18565585       1.03964852        6 
C      -1.87815357       1.19210784      -0.17642187        6 
C      -1.73167042       0.79158265       1.28527498        6 
C      -1.86653119      -0.53641237       1.36004396        6 
C      -2.08865300      -1.04972839      -0.05391211        6 
C      -2.89324824       0.12423332      -0.65238339        6 
H       2.62339194      -1.96842336       1.31502136        1 
H       2.25065310       3.16962363       0.58077433        1 
H      -1.72319313      -1.16785975       2.22613954        1 
H       3.59718275      -1.22841810       0.00317848        1 
H       2.78752517      -2.80749705      -0.24522644        1 
H       2.11975649       2.26761536       2.12430569        1 
H       2.97105229       1.55057922       0.71940567        1 
H      -2.49878329      -2.05227631      -0.14956500        1 
H      -2.11892272       2.23674763      -0.37041644        1 
H      -3.87265147       0.23785393      -0.18551435        1 
H      -3.00480021       0.07726638      -1.73994460        1 
H      -1.45927075       1.46901315       2.08127531        1 
H      -0.76012351       0.92291108      -2.02586054        1 
H      -0.80654492      -1.30480843      -1.80785347        1 
