29
Lattice="0.0 0.0 0.0 0.0 0.0 0.0 0.0 0.0 0.0" Properties=species:S:1:pos:R:3:Z:I:1 pbc="F F F"
C      -0.86078585      -0.12984982      -1.03453060        6 
C       0.45830268      -0.91073604      -0.65982504        6 
C      -0.96472672       1.35682309      -0.74226690        6 
C       1.56123897      -0.18444050       0.07864599        6 
O      -1.10775782       1.64953110       0.55594111        8 
O      -1.00351608       2.19243212      -1.61882918        8 
O       2.75534529      -0.43547775      -0.51500575        8 
O       1.45428698       0.49528652       1.06814477        8 
C       3.90451246       0.16173145       0.11230537        6 
C      -1.19605449       3.04432124       0.88983423        6 
C      -1.97882473      -1.02942836      -0.36615647        6 
C      -1.80851512      -0.97704697       1.14275599        6 
C      -0.69059937      -1.64226903       1.44906272        6 
C      -0.09657590      -2.15495222       0.14987562        6 
C      -1.38703998      -2.42700125      -0.65871744        6 
H       3.80813323       1.24848000       0.12674745        1 
H      -2.07145524       3.49673601       0.42033454        1 
H      -0.20989999      -1.70042924       2.41539943        1 
H       4.75568348      -0.13934752      -0.49433535        1 
H       4.01393143      -0.20091225       1.13580157        1 
H      -1.27862932       3.07509253       1.97379591        1 
H      -0.29858160       3.56900589       0.55999680        1 
H       0.63081175      -2.96242507       0.22695568        1 
H      -2.97548569      -0.81776221      -0.75219897        1 
H      -1.98406915      -3.23185021      -0.22800003        1 
H      -1.21191213      -2.62126179      -1.72115343        1 
H      -2.42378593      -0.39243919       1.81070767        1 
H      -0.97543098      -0.18777634      -2.11695004        1 
H       0.90073415      -1.28329495      -1.58352668        1 
