29
Lattice="0.0 0.0 0.0 0.0 0.0 0.0 0.0 0.0 0.0" Properties=species:S:1:pos:R:3:Z:I:1 pbc="F F F"
C       0.45741019       1.04100330       0.62019219        6 
C       0.68263984      -0.45777290       1.00609164        6 
C      -0.87468766       1.54760770       0.11723507        6 
C      -0.23813040      -1.55506315       0.51565248        6 
O      -1.90747647       0.82154073       0.58925238        8 
O      -1.01764118       2.59957251      -0.46016536        8 
O      -0.79083563      -1.31340047      -0.68652859        8 
O      -0.36414387      -2.60714340       1.10010062        8 
C      -1.61668519      -2.35799237      -1.22589743        6 
C      -3.22394070       1.30870493       0.27482756        6 
C       1.72495042       1.43033317      -0.20637975        6 
C       1.73880814       0.59241444      -1.47065318        6 
C       1.99986275      -0.67013559      -1.11696241        6 
C       2.14262320      -0.70462725       0.39723850        6 
C       2.78586868       0.67899492       0.63481940        6 
H      -1.04393246      -3.27881562      -1.34779686        1 
H      -3.36455159       1.35022136      -0.80635500        1 
H       1.97943144      -1.54429318      -1.75403848        1 
H      -1.95828954      -1.98808845      -2.19042945        1 
H      -2.46469214      -2.55133029      -0.56654476        1 
H      -3.91096062       0.59441465       0.72331927        1 
H      -3.37502288       2.30449841       0.69450250        1 
H       2.63023776      -1.57937570       0.82344347        1 
H       1.83886416       2.50438420      -0.33285402        1 
H       3.78640280       0.74721119       0.20517179        1 
H       2.81203936       0.98178013       1.68570129        1 
H       1.46699340       0.95615173      -2.45241101        1 
H       0.53540184       1.59781796       1.56431320        1 
H       0.72551493      -0.57547535       2.08782424        1 
