29
Lattice="0.0 0.0 0.0 0.0 0.0 0.0 0.0 0.0 0.0" Properties=species:S:1:pos:R:3:Z:I:1 pbc="F F F"
C      -1.01250837      -0.22022693      -0.96652996        6 
C       0.42122033      -0.82321506      -0.79255206        6 
C      -1.38943715       1.14840566      -0.42979333        6 
C       1.59443672       0.11302994      -0.60658467        6 
O      -0.53204061       1.64953789       0.46869431        8 
O      -2.45257352       1.66446144      -0.69351526        8 
O       2.57371182      -0.47457604       0.11974478        8 
O       1.68811422       1.22242504      -1.06730797        8 
C       3.76796573       0.30650189       0.30852391        6 
C      -0.90133012       2.90351796       1.06644751        6 
C      -1.88263223      -1.28565046      -0.14843891        6 
C      -1.54047489      -1.06938957       1.32032782        6 
C      -0.28714315      -1.49531209       1.50978600        6 
C       0.22002547      -2.03110857       0.18169711        6 
C      -1.09729583      -2.58671471      -0.41514449        6 
H       4.23828480       0.52407469      -0.65180225        1 
H      -1.82026127       2.79369704       1.64544275        1 
H       0.31567141      -1.39072642       2.40176192        1 
H       4.42128234      -0.30682879       0.92532298        1 
H       3.53251961       1.24547510       0.81156852        1 
H      -0.06843941       3.17194244       1.71220721        1 
H      -1.05008049       3.66089753       0.29609806        1 
H       1.07702247      -2.69928674       0.22201730        1 
H      -2.93661144      -1.25301202      -0.41534773        1 
H      -1.49302202      -3.43103859       0.15121052        1 
H      -1.02411572      -2.85350648      -1.47372364        1 
H      -2.16679334      -0.53940404       2.02578126        1 
H      -1.31939497      -0.23199196      -2.01193862        1 
H       0.66283049      -1.27303050      -1.76634352        1 
