29
Lattice="0.0 0.0 0.0 0.0 0.0 0.0 0.0 0.0 0.0" Properties=species:S:1:pos:R:3:Z:I:1 pbc="F F F"
C       0.86348458      -0.67106689      -0.81793261        6 
C       0.53330357       0.86947991      -0.89794182        6 
C      -0.09693269      -1.81278441      -0.54937822        6 
C      -0.79964439       1.54684084      -0.64223984        6 
O      -1.12690013      -1.54166172       0.25921392        8 
O       0.12166908      -2.92117480      -0.98894040        8 
O      -1.49413670       1.08761510       0.40507459        8 
O      -1.12926968       2.53194210      -1.26782092        8 
C      -2.70875815       1.79137298       0.71553504        6 
C      -1.99633832      -2.64701299       0.56438433        6 
C       2.06750473      -0.71515547       0.21823129        6 
C       1.52426118      -0.28388599       1.56718513        6 
C       1.26202079       1.02541261       1.49540141        6 
C       1.61829112       1.48771635       0.09309392        6 
C       2.81540001       0.56316909      -0.20988804        6 
H      -2.49652260       2.82934930       0.97784514        1 
H      -1.44921637      -3.43239469       1.08828761        1 
H       0.76129629       1.63192265       2.23725438        1 
H      -3.13935274       1.26132261       1.56260178        1 
H      -3.39028936       1.77242657      -0.13624756        1 
H      -2.77516580      -2.23146991       1.20028438        1 
H      -2.42469801      -3.06051133      -0.34979846        1 
H       1.75071839       2.55820661      -0.05461016        1 
H       2.60755178      -1.65946783       0.18036233        1 
H       3.67558825       0.77672094       0.42677558        1 
H       3.12239040       0.56370700      -1.25948302        1 
H       1.28103105      -0.95521791       2.37968416        1 
H       1.28534477      -0.94455855      -1.78649266        1 
H       0.78920467       1.19971194      -1.90482120        1 
