29
Lattice="0.0 0.0 0.0 0.0 0.0 0.0 0.0 0.0 0.0" Properties=species:S:1:pos:R:3:Z:I:1 pbc="F F F"
C      -1.04353839       0.36143243      -0.92184225        6 
C      -0.15694670      -0.93942985      -0.89573814        6 
C      -0.57156858       1.66082625      -0.28821087        6 
C       1.33893718      -0.78974749      -0.71536814        6 
O       0.70844588       1.65558860       0.10913840        8 
O      -1.31540580       2.59848491      -0.11412126        8 
O       1.78270980      -1.34991446       0.42978759        8 
O       2.06440515      -0.26403230      -1.52319233        8 
C       3.19740883      -1.24764066       0.66716463        6 
C       1.18584288       2.85227197       0.74912034        6 
C      -2.32639684      -0.12398545      -0.11681936        6 
C      -1.87298071      -0.21848606       1.33613237        6 
C      -1.04030283      -1.26063658       1.42757753        6 
C      -0.94868015      -1.90011065       0.05092860        6 
C      -2.37534581      -1.62159946      -0.48334349        6 
H       3.75636846      -1.75313413      -0.12198862        1 
H       0.63319076       3.03399649       1.67219028        1 
H      -0.44557442      -1.55670914       2.27995567        1 
H       3.36749605      -1.73082696       1.62694250        1 
H       3.50010820      -0.20010524       0.70296303        1 
H       2.23691886       2.66679420       0.95815260        1 
H       1.07168039       3.70945424       0.08480056        1 
H      -0.59100165      -2.92780583       0.01804392        1 
H      -3.20446545       0.48569670      -0.31424488        1 
H      -3.14706969      -2.15753093       0.07147940        1 
H      -2.49011414      -1.81486252      -1.55418407        1 
H      -2.09629483       0.51724295       2.09699926        1 
H      -1.31858604       0.60697945      -1.94975436        1 
H      -0.22727589      -1.35962317      -1.90461822        1 
