29
Lattice="0.0 0.0 0.0 0.0 0.0 0.0 0.0 0.0 0.0" Properties=species:S:1:pos:R:3:Z:I:1 pbc="F F F"
C       0.92107943      -0.77784543      -0.79443005        6 
C       0.56405175       0.74844782      -1.01619276        6 
C      -0.20419592      -1.71131297      -0.40884964        6 
C      -0.88915307       1.10891270      -0.77138933        6 
O      -0.85077796      -1.32859596       0.71208946        8 
O      -0.51506086      -2.68692950      -1.04898411        8 
O      -1.11725856       1.71173950       0.40815091        8 
O      -1.75567884       0.92104219      -1.59395478        8 
C      -2.49141150       2.01815463       0.70131927        6 
C      -1.98369815      -2.13123910       1.09037253        6 
C       2.15437677      -0.70363915       0.18170302        6 
C       1.70674026      -0.12272112       1.51197787        6 
C       1.42466186       1.16784782       1.31391424        6 
C       1.66693489       1.47329193      -0.15658705        6 
C       2.86402501       0.53022494      -0.42975377        6 
H      -2.89785274       2.71222371      -0.03581180        1 
H      -1.67815254      -3.16080553       1.28174950        1 
H       0.98657590       1.85815945       2.01894108        1 
H      -2.48289315       2.46952954       1.69104721        1 
H      -3.08865131       1.10498073       0.69992239        1 
H      -2.37292597      -1.67254897       1.99692791        1 
H      -2.73384988      -2.12035303       0.29794145        1 
H       1.78823619       2.52405627      -0.41704008        1 
H       2.71382373      -1.63770976       0.21824647        1 
H       3.75738239       0.81539169       0.12700441        1 
H       3.10828336       0.41645411      -1.49046250        1 
H       1.54230971      -0.69791319       2.41258038        1 
H       1.27400415      -1.18339591      -1.74285092        1 
H       0.72150345       0.97110109      -2.07270238        1 
