29
Lattice="0.0 0.0 0.0 0.0 0.0 0.0 0.0 0.0 0.0" Properties=species:S:1:pos:R:3:Z:I:1 pbc="F F F"
C      -0.83918844       0.62961841       0.94761823        6 
C       0.72683144       0.52572151       0.85796515        6 
C      -1.66250753      -0.60600225       0.62726192        6 
C       1.31704699      -0.75024362       0.29678309        6 
O      -1.86886530      -0.78846670      -0.68837963        8 
O      -2.15673637      -1.30351479       1.48163878        8 
O       2.65963657      -0.62563540       0.18596935        8 
O       0.72365265      -1.75453477      -0.00715025        8 
C       3.35973357      -1.77445512      -0.32722670        6 
C      -2.54441603      -2.00335795      -1.05340126        6 
C      -1.13216863       1.91136395       0.07685691        6 
C      -0.70283508       1.63674749      -1.35652919        6 
C       0.63279014       1.59012583      -1.38142040        6 
C       1.12096488       1.81686839       0.03857663        6 
C       0.04345259       2.80121020       0.54599961        6 
H       3.19735916      -2.64002894       0.31680724        1 
H      -3.53133777      -2.05190512      -0.59073787        1 
H       1.26342852       1.31448893      -2.21638191        1 
H       4.41041133      -1.49318823      -0.33511220        1 
H       3.01758058      -2.01016024      -1.33630599        1 
H      -2.62874834      -1.97387982      -2.13784229        1 
H      -1.95073247      -2.86246034      -0.73774052        1 
H       2.16486509       2.09634365       0.15966548        1 
H      -2.14148701       2.29782862       0.21260002        1 
H       0.07901155       3.75898351       0.02442139        1 
H       0.06699392       2.96563205       1.62720365        1 
H      -1.38080894       1.41018628      -2.16599314        1 
H      -1.09797733       0.85204250       1.98306636        1 
H       1.14347781       0.61837100       1.86558522        1 
