29
Lattice="0.0 0.0 0.0 0.0 0.0 0.0 0.0 0.0 0.0" Properties=species:S:1:pos:R:3:Z:I:1 pbc="F F F"
C       0.29272905       0.92204180       0.92677917        6 
C       1.01805093      -0.47725230       0.88897401        6 
C      -1.20858875       0.95251069       0.72995489        6 
C       0.35536379      -1.70483068       0.29125087        6 
O      -1.57447001       1.41258579      -0.48373288        8 
O      -1.99959530       0.64584928       1.58900283        8 
O      -0.91186303      -1.51532802      -0.10709705        8 
O       0.94035573      -2.75517129       0.16313608        8 
C      -1.57818898      -2.64824148      -0.69332345        6 
C      -2.98735600       1.43135820      -0.74522692        6 
C       1.18760520       1.80537298      -0.00934042        6 
C       1.16238786       1.21442410      -1.41001226        6 
C       1.84712586       0.06631723      -1.37936391        6 
C       2.32177723      -0.14229735       0.05089700        6 
C       2.57750347       1.31889287       0.46963869        6 
H      -1.06455982      -2.96066262      -1.60361113        1 
H      -3.50081478       2.08984761      -0.04283313        1 
H       1.95247113      -0.66057073      -2.17409412        1 
H      -2.58565066      -2.30513329      -0.91775140        1 
H      -1.60448704      -3.48011390       0.01138267        1 
H      -3.09063818       1.80113779      -1.76331705        1 
H      -3.39976414       0.42505841      -0.65696430        1 
H       3.11540582      -0.87027355       0.20022669        1 
H       0.97184537       2.86987831       0.06817994        1 
H       3.39755481       1.77071557      -0.09060269        1 
H       2.74404718       1.44998870       1.54277045        1 
H       0.59526269       1.62005398      -2.23539758        1 
H       0.41322193       1.29599222       1.94654415        1 
H       1.30428568      -0.76785618       1.90228045        1 
