29
Lattice="0.0 0.0 0.0 0.0 0.0 0.0 0.0 0.0 0.0" Properties=species:S:1:pos:R:3:Z:I:1 pbc="F F F"
C      -0.58082638       0.86957466       0.90900022        6 
C       0.90793601       0.30868801       0.98372311        6 
C      -1.66899655      -0.12214473       0.54416933        6 
C       1.10430230      -1.15096303       0.61511319        6 
O      -2.08375403      -0.01084552      -0.73789049        8 
O      -2.12002935      -0.93380756       1.31215194        8 
O       1.78136707      -1.32641786      -0.54105172        8 
O       0.73024863      -2.07020521       1.29982906        8 
C       1.99795974      -2.69223674      -0.94078787        6 
C      -3.10165695      -0.93992545      -1.15268186        6 
C      -0.41266704       2.15526564       0.03018976        6 
C       0.01329528       1.74562897      -1.37038808        6 
C       1.26695265       1.29243740      -1.29582412        6 
C       1.70240294       1.38332303       0.15959795        6 
C       0.94136819       2.66255583       0.58471975        6 
H       2.58786828      -3.22193260      -0.19131889        1 
H      -4.00667335      -0.80725920      -0.55770105        1 
H       1.84793840       0.83435548      -2.08225501        1 
H       2.53674836      -2.63528864      -1.88426233        1 
H       1.04436358      -3.20575624      -1.07217082        1 
H      -3.29395783      -0.71015367      -2.19867591        1 
H      -2.74812897      -1.96594849      -1.04120686        1 
H       2.77556508       1.35307042       0.34283664        1 
H      -1.26663742       2.82835860       0.09657027        1 
H       1.29856626       3.55232776       0.06507513        1 
H       0.93857872       2.83853179       1.66490311        1 
H      -0.63952139       1.73441896      -2.23070851        1 
H      -0.84850649       1.17466120       1.92288793        1 
H       1.21398584       0.35570614       2.03091811        1 
