29
Lattice="0.0 0.0 0.0 0.0 0.0 0.0 0.0 0.0 0.0" Properties=species:S:1:pos:R:3:Z:I:1 pbc="F F F"
C       0.16688433       1.17695746       0.63067181        6 
C       0.65337973      -0.28148478       1.04511185        6 
C      -1.08499535       1.27984283      -0.21712047        6 
C      -0.22348070      -1.44337997       0.60966025        6 
O      -2.17789416       1.05868370       0.53397487        8 
O      -1.12947192       1.58454670      -1.38574072        8 
O       0.35025703      -2.21830380      -0.33381681        8 
O      -1.30888671      -1.68275902       1.08080639        8 
C      -0.42760750      -3.33926738      -0.79183839        6 
C      -3.44296733       1.06733503      -0.14919050        6 
C       1.44738434       1.78886217      -0.02352373        6 
C       1.72818169       1.02717287      -1.30933399        6 
C       2.14631411      -0.19473994      -0.96807583        6 
C       2.14495896      -0.27629494       0.55169804        6 
C       2.53133494       1.18092482       0.89777424        6 
H      -0.65016713      -4.01432821       0.03579735        1 
H      -3.45304254       0.31551183      -0.93985616        1 
H       2.34286652      -1.02803357      -1.62616326        1 
H       0.19110645      -3.83474882      -1.53691406        1 
H      -1.36276718      -2.99611803      -1.23677072        1 
H      -4.18194286       0.82689892       0.61146874        1 
H      -3.63839863       2.04940849      -0.58326167        1 
H       2.74296162      -1.07287686       0.99248654        1 
H       1.40590676       2.87402311      -0.10659234        1 
H       3.54242408       1.43253205       0.57518826        1 
H       2.40638032       1.43298985       1.95570459        1 
H       1.50337683       1.39404442      -2.29977468        1 
H      -0.06408292       1.71172355       1.55470635        1 
H       0.62971614      -0.33136842       2.13633895        1 
