29
Lattice="0.0 0.0 0.0 0.0 0.0 0.0 0.0 0.0 0.0" Properties=species:S:1:pos:R:3:Z:I:1 pbc="F F F"
C       0.96898204      -0.62872178      -0.78636122        6 
C       0.45511808       0.85344350      -0.94268186        6 
C       0.07223273      -1.78772834      -0.40933148        6 
C      -1.00137692       1.21432968      -0.70398296        6 
O      -1.04931133      -1.44550470       0.24430913        8 
O       0.35524618      -2.93177185      -0.68271362        8 
O      -1.35783506       1.27454744       0.58955947        8 
O      -1.74054763       1.55325965      -1.60127718        8 
C      -2.72681579       1.62162666       0.84962818        6 
C      -1.92775323      -2.52756207       0.60619502        6 
C       2.21087598      -0.47734955       0.17799012        6 
C       1.69755258      -0.04121500       1.53751738        6 
C       1.26631617       1.21823064       1.41782482        6 
C       1.47920825       1.64486316      -0.02696663        6 
C       2.77388032       0.86183653      -0.34998328        6 
H      -2.95969543       2.60896909       0.44779750        1 
H      -1.41849144      -3.22680337       1.27064682        1 
H       0.74706527       1.80409655       2.16155346        1 
H      -2.82672365       1.61340113       1.93304893        1 
H      -3.39613141       0.88755251       0.39726293        1 
H      -2.76814108      -2.05899469       1.11368791        1 
H      -2.26262438      -3.05903331      -0.28561252        1 
H       1.47892959       2.71687385      -0.22059228        1 
H       2.86129879      -1.34972389       0.15216344        1 
H       3.62817127       1.21029416       0.23165940        1 
H       3.02968895       0.84537865      -1.41352165        1 
H       1.59936148      -0.68937884       2.39832764        1 
H       1.36689244      -0.93799565      -1.75523919        1 
H       0.62091155       1.14662222      -1.97900451        1 
