29
Lattice="0.0 0.0 0.0 0.0 0.0 0.0 0.0 0.0 0.0" Properties=species:S:1:pos:R:3:Z:I:1 pbc="F F F"
C      -0.78731047       0.44431573      -0.97730331        6 
C      -0.33009260      -1.03599466      -0.68102861        6 
C      -0.03681448       1.64271212      -0.42678333        6 
C       0.99242492      -1.26613994       0.02121946        6 
O       1.10513833       1.33935490       0.20870796        8 
O      -0.44839532       2.77319675      -0.54684535        8 
O       2.00491633      -1.23733328      -0.87489870        8 
O       1.15031816      -1.49437709       1.19455482        8 
C       3.32738132      -1.36934560      -0.33034186        6 
C       1.81000002       2.43472808       0.82082544        6 
C      -2.26797408       0.45331259      -0.41879899        6 
C      -2.13520721       0.37772205       1.09475142        6 
C      -1.70392845      -0.85173502       1.39785574        6 
C      -1.56315596      -1.62343755       0.09296481        6 
C      -2.70607034      -0.99109983      -0.73453971        6 
H       3.52005608      -0.57050080       0.38775150        1 
H       1.16879670       2.93764414       1.54560779        1 
H      -1.39104686      -1.22198132       2.36276604        1 
H       4.00234647      -1.29112178      -1.18005713        1 
H       3.44569138      -2.33382217       0.16625880        1 
H       2.66638596       1.98408854       1.31743867        1 
H       2.13220137       3.15137916       0.06421366        1 
H      -1.53880569      -2.70921863       0.17532089        1 
H      -2.86147295       1.27168290      -0.81926846        1 
H      -3.69416301      -1.22199447      -0.33408318        1 
H      -2.66959932      -1.24220889      -1.79936695        1 
H      -2.25058593       1.22026587       1.76342346        1 
H      -0.81427040       0.59848964      -2.05960299        1 
H      -0.24646386      -1.54174379      -1.64571110        1 
