29
Lattice="0.0 0.0 0.0 0.0 0.0 0.0 0.0 0.0 0.0" Properties=species:S:1:pos:R:3:Z:I:1 pbc="F F F"
C      -0.82863883       0.64291938       0.94964135        6 
C       0.73502226       0.50724721       0.87232058        6 
C      -1.66325636      -0.58703742       0.63913706        6 
C       1.29677703      -0.76593942       0.27681761        6 
O      -1.94113348      -0.72912723      -0.66838109        8 
O      -2.10034075      -1.31707137       1.49699672        8 
O       2.64300992      -0.67490150       0.18091652        8 
O       0.67899541      -1.74397504      -0.06228027        8 
C       3.31610956      -1.82600949      -0.36205242        6 
C      -2.62588058      -1.93858235      -1.03472393        6 
C      -1.09364181       1.92527836       0.07440717        6 
C      -0.65028985       1.64377715      -1.35309023        6 
C       0.68499654       1.58170721      -1.36166049        6 
C       1.15819397       1.79990464       0.06514812        6 
C       0.08827471       2.79852561       0.55937103        6 
H       3.13372685      -2.70355722       0.26008864        1 
H      -3.59506612      -2.00040578      -0.53729532        1 
H       1.32237217       1.29868864      -2.18904811        1 
H       4.37312551      -1.56933836      -0.36309404        1 
H       2.96886322      -2.02784330      -1.37662580        1 
H      -2.75109547      -1.88535783      -2.11437420        1 
H      -2.01877500      -2.80240379      -0.76070396        1 
H       2.20451009       2.06307810       0.20056800        1 
H      -2.09905993       2.32608609       0.19638293        1 
H       0.14444517       3.75610914       0.03919379        1 
H       0.10029543       2.96259537       1.64083269        1 
H      -1.32084600       1.42515800      -2.17087338        1 
H      -1.08640715       0.87700501       1.98315646        1 
H       1.15178219       0.57370381       1.88135598        1 
