29
Lattice="0.0 0.0 0.0 0.0 0.0 0.0 0.0 0.0 0.0" Properties=species:S:1:pos:R:3:Z:I:1 pbc="F F F"
C      -0.51776559       0.78955838      -1.00426704        6 
C      -0.95829075      -0.71531408      -0.80575166        6 
C       0.95529211       1.07742013      -0.77806377        6 
C       0.08806300      -1.72969421      -0.40236659        6 
O       1.22945603       1.64005226       0.41113681        8 
O       1.79648539       0.88003580      -1.62437801        8 
O       0.84047892      -1.33045657       0.64312139        8 
O       0.24008720      -2.79114558      -0.95851706        8 
C       1.88211319      -2.23508871       1.05267466        6 
C       2.61928278       1.88812142       0.68159079        6 
C      -1.56959854       1.56349450      -0.12242817        6 
C      -1.34119081       1.20965279       1.33926886        6 
C      -1.70514853      -0.06433153       1.51024687        6 
C      -2.19181580      -0.58555031       0.16927724        6 
C      -2.82462366       0.70327927      -0.41118309        6 
H       1.45813672      -3.18992015       1.36690472        1 
H       3.03378410       2.59066792      -0.04302674        1 
H      -1.57579985      -0.66887352       2.39755195        1 
H       2.37946112      -1.74423946       1.88654318        1 
H       2.57923285      -2.40478227       0.23094846        1 
H       2.64923459       2.30811801       1.68465507        1 
H       3.18342235       0.95520105       0.63764570        1 
H      -2.80640344      -1.48476942       0.18559419        1 
H      -1.62669695       2.62543906      -0.35812719        1 
H      -3.69647821       1.02968171       0.15701049        1 
H      -3.07994516       0.62951284      -1.47276423        1 
H      -0.85673199       1.85404705       2.05731720        1 
H      -0.67853477       1.03859830      -2.05449646        1 
H      -1.33021226      -1.09296884      -1.75844494        1 
