29
Lattice="0.0 0.0 0.0 0.0 0.0 0.0 0.0 0.0 0.0" Properties=species:S:1:pos:R:3:Z:I:1 pbc="F F F"
C      -0.49377535       0.78434258      -0.94940123        6 
C      -0.80638845      -0.76347029      -0.87374448        6 
C       0.92580946       1.24972249      -0.69590363        6 
C       0.13077628      -1.72738483      -0.16046491        6 
O       1.08527866       1.79208615       0.53011275        8 
O       1.81924134       1.15516575      -1.50046577        8 
O       1.40897151      -1.32459206      -0.13353835        8 
O      -0.24414067      -2.77396807       0.31464299        8 
C       2.34967075      -2.21917646       0.48823285        6 
C       2.42097619       2.21009343       0.85990542        6 
C      -1.65618633       1.41393313      -0.11026381        6 
C      -1.56755683       0.89537834       1.31764693        6 
C      -1.91262095      -0.39639204       1.30270874        6 
C      -2.20785484      -0.77169280      -0.14543763        6 
C      -2.82385393       0.55099056      -0.64743311        6 
H       2.10202712      -2.35925191       1.54157567        1 
H       2.76403701       2.98211375       0.16928706        1 
H      -1.87238381      -1.10203635       2.12079530        1 
H       3.31847659      -1.73755178       0.37777456        1 
H       2.34128959      -3.18726386      -0.01412121        1 
H       2.36231574       2.60039612       1.87369963        1 
H       3.10401764       1.36056048       0.81251051        1 
H      -2.76897585      -1.68944985      -0.30369643        1 
H      -1.73334459       2.49389849      -0.22817155        1 
H      -3.77393205       0.77471147      -0.16038873        1 
H      -2.94453936       0.60255793      -1.73380879        1 
H      -1.19282243       1.46783719       2.15376362        1 
H      -0.65465134       1.06772415      -1.99344134        1 
H      -0.90441629      -1.15556833      -1.89058521        1 
