29
Lattice="0.0 0.0 0.0 0.0 0.0 0.0 0.0 0.0 0.0" Properties=species:S:1:pos:R:3:Z:I:1 pbc="F F F"
C      -0.58345186       0.70836076      -0.97001790        6 
C      -0.77712725      -0.84116505      -0.76272104        6 
C       0.74375151       1.37148687      -0.64898347        6 
C       0.32461078      -1.74868768      -0.25359697        6 
O       0.99062299       1.48961403       0.66891975        8 
O       1.46754481       1.83919765      -1.49734882        8 
O       1.51831498      -1.14925933      -0.11453997        8 
O       0.15662611      -2.93405643      -0.08454970        8 
C       2.61561037      -1.99634926       0.27477092        6 
C       2.24540875       2.09190731       1.02005481        6 
C      -1.81897869       1.28923073      -0.16526677        6 
C      -1.63247457       0.95855383       1.30903927        6 
C      -1.79986217      -0.35977064       1.45398437        6 
C      -2.10315040      -0.93380803       0.08139598        6 
C      -2.88941301       0.23885120      -0.54509045        6 
H       2.42930077      -2.42990884       1.25824115        1 
H       2.30876684       3.10938145       0.63101831        1 
H      -1.63949354      -0.94990285       2.34657231        1 
H       3.48718138      -1.34627192       0.29891824        1 
H       2.75300327      -2.79785672      -0.45204300        1 
H       2.27314778       2.09314402       2.10777569        1 
H       3.07164486       1.50431905       0.61570659        1 
H      -2.55177407      -1.92419381       0.05127650        1 
H      -2.02966966       2.33060683      -0.40570963        1 
H      -3.84312442       0.41470412      -0.04539235        1 
H      -3.04828288       0.14007505      -1.62315373        1 
H      -1.30927276       1.66364950       2.06051989        1 
H      -0.72894130       0.92489428      -2.02824651        1 
H      -0.99426278      -1.26963693      -1.74729347        1 
