29
Lattice="0.0 0.0 0.0 0.0 0.0 0.0 0.0 0.0 0.0" Properties=species:S:1:pos:R:3:Z:I:1 pbc="F F F"
C      -0.72465392       0.45707778       0.93631893        6 
C       0.82876671       0.69965156       0.92471951        6 
C      -1.22076711      -0.82353800       0.29202984        6 
C       1.70864536      -0.50299861       0.64062767        6 
O      -2.55711063      -0.75277143       0.09177398        8 
O      -0.56857370      -1.80120839       0.02448148        8 
O       2.07102763      -0.59539453      -0.65243740        8 
O       2.07215690      -1.27265854       1.49630307        8 
C       2.77778943      -1.79384370      -1.01797290        6 
C      -3.17288879      -1.91552881      -0.49211870        6 
C      -1.26638344       1.73445082       0.17185440        6 
C      -0.88883309       1.51838308      -1.28699782        6 
C       0.44001624       1.63302393      -1.37563984        6 
C       0.96988389       1.96631740       0.00927691        6 
C      -0.21462505       2.79043862       0.56985340        6 
H       3.71463236      -1.87417551      -0.46451553        1 
H      -3.00801837      -2.79246818       0.13543350        1 
H       1.06026073       1.43123149      -2.23658274        1 
H       2.96916953      -1.70398123      -2.08544777        1 
H       2.15481931      -2.66475608      -0.80980007        1 
H      -4.23338291      -1.68092757      -0.55357831        1 
H      -2.76385006      -2.10333226      -1.48626342        1 
H       1.96123503       2.41541188       0.04939948        1 
H      -2.31213363       1.94860413       0.37842354        1 
H      -0.35948753       3.73522057       0.04324337        1 
H      -0.15256706       2.97088086       1.64699671        1 
H      -1.57553742       1.20041732      -2.06025750        1 
H      -1.09350069       0.44595175       1.96563367        1 
H       1.11048533       0.98934909       1.93910193        1 
