29
Lattice="0.0 0.0 0.0 0.0 0.0 0.0 0.0 0.0 0.0" Properties=species:S:1:pos:R:3:Z:I:1 pbc="F F F"
C      -0.81767250       0.41445395       0.69130044        6 
C       0.72009084       0.24556708       0.88750677        6 
C      -1.70277930      -0.77349467       0.37614586        6 
C       1.46961074      -0.79795068       0.06779728        6 
O      -2.91317541      -0.33455749      -0.06134697        8 
O      -1.43834130      -1.93694180       0.51511343        8 
O       2.80567838      -0.62612917       0.27664202        8 
O       1.03198571      -1.67560726      -0.62356380        8 
C       3.66587540      -1.55387912      -0.40592092        6 
C      -3.88718533      -1.35837052      -0.33225844        6 
C      -0.96667953       1.74972884      -0.11334410        6 
C      -0.20715234       1.61625149      -1.42242977        6 
C       1.09939424       1.60851560      -1.13543380        6 
C       1.23206154       1.67873607       0.38246962        6 
C       0.03795370       2.59962880       0.70268122        6 
H       3.43534976      -2.57914214      -0.11208030        1 
H      -4.10786184      -1.92689885       0.57299178        1 
H       1.91977892       1.43839950      -1.82010027        1 
H       4.67749099      -1.28717845      -0.10686611        1 
H       3.54925486      -1.46035906      -1.48738711        1 
H      -4.77413142      -0.83108871      -0.67764316        1 
H      -3.52090531      -2.04057390      -1.10092879        1 
H       2.20991704       1.94517995       0.77389803        1 
H      -1.99450902       2.09711718      -0.17815399        1 
H       0.17399501       3.60121134       0.29170445        1 
H      -0.20739182       2.66700819       1.76642599        1 
H      -0.66731991       1.46148453      -2.38930199        1 
H      -1.19381277       0.66848946       1.69368541        1 
H       0.97490904       0.08827264       1.93623500        1 
