29
Lattice="0.0 0.0 0.0 0.0 0.0 0.0 0.0 0.0 0.0" Properties=species:S:1:pos:R:3:Z:I:1 pbc="F F F"
C       0.54788073       1.02154602       0.71565022        6 
C       0.67536230      -0.52980833       1.02592902        6 
C      -0.65681204       1.43886304      -0.10424625        6 
C      -0.52127698      -1.38623453       0.67262812        6 
O      -1.78024333       1.32838307       0.63750812        8 
O      -0.65693053       1.80955188      -1.25187733        8 
O      -0.61459106      -1.64339299      -0.64758301        8 
O      -1.33431732      -1.77094861       1.47868182        8 
C      -1.76209256      -2.40227038      -1.06817044        6 
C      -3.01957438       1.61081426      -0.03615389        6 
C       1.92425557       1.33851257       0.02955080        6 
C       1.93060019       0.65233094      -1.32823965        6 
C       2.00738247      -0.66361802      -1.11206609        6 
C       2.06855641      -0.88276043       0.38927057        6 
C       2.85072498       0.38336554       0.81722081        6 
H      -1.76594867      -3.38595973      -0.59622474        1 
H      -3.15206514       0.93621322      -0.88390521        1 
H       1.92385083      -1.45232352      -1.84585884        1 
H      -1.66737705      -2.49381940      -2.14799187        1 
H      -2.68285069      -1.87801208      -0.80674971        1 
H      -3.79624915       1.44745217       0.70735196        1 
H      -3.03614307       2.64163756      -0.39320590        1 
H       2.45391333      -1.84554181       0.72465135        1 
H       2.16982709       2.39950339       0.03437912        1 
H       3.87368844       0.38961238       0.43868249        1 
H       2.85352678       0.55533621       1.89821638        1 
H       1.76658097       1.15419199      -2.26977269        1 
H       0.46574572       1.54304737       1.67181099        1 
H       0.75778873      -0.63811909       2.10772622        1 
