29
Lattice="0.0 0.0 0.0 0.0 0.0 0.0 0.0 0.0 0.0" Properties=species:S:1:pos:R:3:Z:I:1 pbc="F F F"
C       0.64154104       0.95682915       0.71301667        6 
C       0.64599390      -0.58979598       0.99284689        6 
C      -0.57938290       1.72731179       0.25396195        6 
C      -0.51656877      -1.49265979       0.62631881        6 
O      -1.70368917       0.99686038       0.17961623        8 
O      -0.56128285       2.92712599       0.10078079        8 
O      -0.86173570      -1.44907560      -0.67224496        8 
O      -0.99958009      -2.28145426       1.40719579        8 
C      -1.93684999      -2.31281199      -1.07056823        6 
C      -2.91099874       1.71228958      -0.14139897        6 
C       1.93493035       1.19002864      -0.14988039        6 
C       1.73207619       0.49217430      -1.48096182        6 
C       1.76524994      -0.82464148      -1.25308378        6 
C       1.97874726      -1.03123629       0.23894650        6 
C       2.87978596       0.18591511       0.54848594        6 
H      -1.69437923      -3.35593444      -0.86146939        1 
H      -2.83231284       2.16388521      -1.13130042        1 
H       1.56133952      -1.61494573      -1.96127876        1 
H      -2.05595295      -2.15274752      -2.14036543        1 
H      -2.85328179      -2.04696917      -0.54033604        1 
H      -3.70172014       0.96545085      -0.12240369        1 
H      -3.10024745       2.49304746       0.59643021        1 
H       2.33151909      -2.01470707       0.54714954        1 
H       2.23306042       2.23539798      -0.18408399        1 
H       3.85123948       0.11618027       0.05730188        1 
H       3.01545575       0.37513542       1.61725254        1 
H       1.49538458       0.99218543      -2.41086025        1 
H       0.83795959       1.43571691       1.67946057        1 
H       0.78278178      -0.75277693       2.06088020        1 
