29
Lattice="0.0 0.0 0.0 0.0 0.0 0.0 0.0 0.0 0.0" Properties=species:S:1:pos:R:3:Z:I:1 pbc="F F F"
C      -0.80166267       0.77289911      -0.88250798        6 
C      -0.49293409      -0.77606974      -0.94859732        6 
C       0.13433296       1.73359238      -0.16164347        6 
C       0.92525652      -1.24647634      -0.69867575        6 
O       1.41135253       1.32742302      -0.13371767        8 
O      -0.24059226       2.77554988       0.32340269        8 
O       1.07999329      -1.80849899       0.51932555        8 
O       1.82009337      -1.14594673      -1.50088910        8 
C       2.40994920      -2.25171458       0.83921487        6 
C       2.35107784       2.20717503       0.50985111        6 
C      -2.20748231       0.78599043      -0.16117573        6 
C      -1.91674450       0.42447485       1.29153042        6 
C      -1.56959169      -0.86664469       1.31833498        6 
C      -1.65501404      -1.39888702      -0.10495731        6 
C      -2.82176888      -0.54210618      -0.65252241        6 
H       2.74130408      -3.01409736       0.13226447        1 
H       2.09707821       2.32806344       1.56410312        1 
H      -1.19665898      -1.43201149       2.16022200        1 
H       2.34637378      -2.66250156       1.84459173        1 
H       3.10545153      -1.41156484       0.80893391        1 
H       3.31880212       1.72385464       0.39695902        1 
H       2.34968657       3.18442940       0.02563029        1 
H      -1.73075413      -2.48010262      -0.21276977        1 
H      -2.76897811       1.70157705      -0.32961289        1 
H      -3.77270381      -0.76256654      -0.16555003        1 
H      -2.94014631      -0.60469972      -1.73859815        1 
H      -1.87979268       1.13690141       2.10366229        1 
H      -0.89131414       1.16123132      -1.90136797        1 
H      -0.65732777      -1.06496774      -1.99081127        1 
