29
Lattice="0.0 0.0 0.0 0.0 0.0 0.0 0.0 0.0 0.0" Properties=species:S:1:pos:R:3:Z:I:1 pbc="F F F"
C      -0.53605230       0.84120976      -0.75031204        6 
C      -0.60911285      -0.74627290      -0.82185638        6 
C       0.58441068       1.45738557       0.06348470        6 
C       0.39817724      -1.54720665      -0.01700447        6 
O       1.73015632       1.48395143      -0.64762435        8 
O       0.48086323       1.93948603       1.16590356        8 
O       1.64033470      -1.41030334      -0.52511055        8 
O       0.14560646      -2.26554862       0.91933026        8 
C       2.68477705      -2.13617341       0.14715205        6 
C       2.88010896       2.02401740       0.02476671        6 
C      -1.97608876       1.22165252      -0.26896063        6 
C      -2.15875511       0.68971788       1.14513200        6 
C      -2.23401822      -0.64210718       1.06672178        6 
C      -2.09441005      -1.02481348      -0.40126833        6 
C      -2.79669874       0.18046679      -1.06658030        6 
H       2.75963612      -1.82058353       1.18915020        1 
H       3.11028068       1.43794119       0.91649084        1 
H      -2.25952232      -1.34993814       1.88172991        1 
H       3.59737023      -1.89560248      -0.39383994        1 
H       2.48926729      -3.20912021       0.11282925        1 
H       3.69329498       1.95959890      -0.69484658        1 
H       2.70428893       3.06078181       0.31572053        1 
H      -2.43588440      -2.02237162      -0.67443702        1 
H      -2.21138333       2.27395378      -0.42391639        1 
H      -3.86215780       0.22176435      -0.83701256        1 
H      -2.64987181       0.23738658      -2.15002151        1 
H      -2.10930801       1.29544472       2.03761731        1 
H      -0.38724007       1.20043665      -1.77092719        1 
H      -0.45307273      -1.03636474      -1.86424771        1 
