29
Lattice="0.0 0.0 0.0 0.0 0.0 0.0 0.0 0.0 0.0" Properties=species:S:1:pos:R:3:Z:I:1 pbc="F F F"
C      -0.60674321       0.74418938      -0.82554671        6 
C      -0.53447908      -0.84286017      -0.74229229        6 
C       0.38868892       1.57182761      -0.03153551        6 
C       0.58724719      -1.48217545       0.05073579        6 
O       1.64672687       1.39150413      -0.47906446        8 
O       0.10878493       2.35259266       0.84605372        8 
O       1.74507574      -1.44120807      -0.63806402        8 
O       0.46876682      -2.05552350       1.10747787        8 
C       2.88889488      -2.02390547       0.00833657        6 
C       2.67270319       2.14590069       0.19028707        6 
C      -2.09327086       1.02320794      -0.40579717        6 
C      -2.22012571       0.65841090       1.06803860        6 
C      -2.14055433      -0.67272267       1.16108245        6 
C      -1.96993141      -1.22101619      -0.24833990        6 
C      -2.79721154      -0.19125030      -1.05201401        6 
H       3.09061455      -1.51972148       0.95506320        1 
H       2.68335752       1.91419105       1.25641015        1 
H      -2.08018466      -1.26941564       2.05925022        1 
H       3.71593926      -1.88124145      -0.68385174        1 
H       2.72454413      -3.08598199       0.19733054        1 
H       3.60595090       1.84158075      -0.27869905        1 
H       2.50874478       3.21670155       0.05879243        1 
H      -2.20184139      -2.27616058      -0.38799015        1 
H      -2.43672906       2.01755535      -0.68687929        1 
H      -3.86105112      -0.23251257      -0.81509273        1 
H      -2.65789487      -0.26135222      -2.13570659        1 
H      -2.23914573       1.37573095       1.87490574        1 
H      -0.45382732       1.02455383      -1.87142820        1 
H      -0.39931457      -1.20531699      -1.76447855        1 
