29
Lattice="0.0 0.0 0.0 0.0 0.0 0.0 0.0 0.0 0.0" Properties=species:S:1:pos:R:3:Z:I:1 pbc="F F F"
C       0.07172653       0.94505422       0.93304156        6 
C       1.12587854      -0.22017836       0.89931482        6 
C      -1.37709163       0.54970140       0.74584517        6 
C       0.74249751      -1.58639559       0.37401804        6 
O      -1.95146506       1.15125818      -0.31458393        8 
O      -1.97245268      -0.18152026       1.50008598        8 
O      -0.30756506      -1.56681353      -0.46666230        8 
O       1.37398688      -2.58616373       0.62442673        8 
C      -0.71478629      -2.83541754      -1.00872971        6 
C      -3.33151708       0.82130336      -0.55187960        6 
C       0.69532339       2.02405215      -0.01700954        6 
C       0.76769734       1.44541236      -1.41923233        6 
C       1.70905400       0.49673990      -1.41987351        6 
C       2.26970903       0.40856799      -0.01067689        6 
C       2.17654649       1.89088994       0.41282941        6 
H       0.08181938      -3.26294448      -1.61971872        1 
H      -3.94853640       1.11589477       0.29838994        1 
H       1.94313357      -0.19169332      -2.22125970        1 
H      -1.59147127      -2.62233109      -1.61644222        1 
H      -0.96356389      -3.52794036      -0.20388319        1 
H      -3.61487049       1.37816268      -1.44245058        1 
H      -3.44039185      -0.25167624      -0.71734910        1 
H       3.22374102      -0.10124720       0.10812180        1 
H       0.22929422       3.00321843       0.07695032        1 
H       2.84283858       2.52965592      -0.16909645        1 
H       2.34244835       2.05499977       1.48139664        1 
H       0.08295520       1.69018611      -2.21842036        1 
H       0.09027260       1.34726785       1.95082666        1 
H       1.52800440      -0.39607797       1.89676032        1 
