29
Lattice="0.0 0.0 0.0 0.0 0.0 0.0 0.0 0.0 0.0" Properties=species:S:1:pos:R:3:Z:I:1 pbc="F F F"
C      -0.90727680       0.49743105       0.94591222        6 
C       0.64674996       0.64168699       0.79671931        6 
C      -1.62044880      -0.78264623       0.55014336        6 
C       1.45848703      -0.58034625       0.42580966        6 
O      -1.37762674      -1.17010154      -0.71168716        8 
O      -2.42925529      -1.32586063       1.26765050        8 
O       2.73161974      -0.21982957       0.13754311        8 
O       1.07919013      -1.72386002       0.39926400        8 
C       3.62762974      -1.29452327      -0.20220640        6 
C      -1.99323841      -2.40027198      -1.12676460        6 
C      -1.41555352       1.74411823       0.09691925        6 
C      -1.05098974       1.50133189      -1.36024543        6 
C       0.27698501       1.60545910      -1.47093429        6 
C       0.82435633       1.92623970      -0.09412682        6 
C      -0.33270916       2.78025906       0.47361204        6 
H       3.69852102      -2.00885785       0.61952969        1 
H      -3.07840703      -2.34316694      -1.02885970        1 
H       0.88182100       1.38545628      -2.34055420        1 
H       4.59048502      -0.82234519      -0.38426804        1 
H       3.27809316      -1.81226010      -1.09685227        1 
H      -1.70590902      -2.52991283      -2.16813268        1 
H      -1.61696418      -3.22673480      -0.52194349        1 
H       1.82916995       2.33969990      -0.05108741        1 
H      -2.45438459       1.99801701       0.30254548        1 
H      -0.45623538       3.72316242      -0.06151949        1 
H      -0.25850022       2.96944108       1.54850195        1 
H      -1.74582321       1.17938189      -2.12272371        1 
H      -1.18612663       0.65106952       1.98735756        1 
H       1.03558063       0.89937118       1.79003110        1 
