29
Lattice="0.0 0.0 0.0 0.0 0.0 0.0 0.0 0.0 0.0" Properties=species:S:1:pos:R:3:Z:I:1 pbc="F F F"
C      -0.66535655       0.14835513       0.92030717        6 
C       0.67971242       0.93189876       0.71320972        6 
C      -0.83403170      -1.14824938       0.15262525        6 
C       1.79693025       0.23086194      -0.03253134        6 
O      -2.11245684      -1.57886402       0.25795600        8 
O       0.01454373      -1.75741813      -0.44899272        8 
O       2.37970410      -0.69359624       0.75807964        8 
O       2.18046522       0.50422227      -1.14294556        8 
C       3.34742749      -1.54302691       0.11760370        6 
C      -2.42263650      -2.81509446      -0.41143682        6 
C      -1.74333805       1.21941734       0.47025292        6 
C      -1.59150842       1.32997233      -1.04011944        6 
C      -0.42419719       1.93634680      -1.28242184        6 
C       0.20736233       2.27130002       0.06021546        6 
C      -1.06032653       2.52978640       0.91006368        6 
H       2.86477415      -2.10872876      -0.68076980        1 
H      -1.81563061      -3.62928723      -0.01246279        1 
H       0.06281206       2.07130289      -2.23687673        1 
H       3.70849732      -2.21189473       0.89610887        1 
H       4.16727995      -0.95278446      -0.29398398        1 
H      -3.47785035      -2.99264935      -0.21542318        1 
H      -2.24095379      -2.72458562      -1.48350192        1 
H       0.97858430       3.03970098       0.04833948        1 
H      -2.74089993       1.00911779       0.84833701        1 
H      -1.61207377       3.41278914       0.58393661        1 
H      -0.86560646       2.59003800       1.98521043        1 
H      -2.25556664       0.87036566      -1.76045489        1 
H      -0.80184947      -0.09779160       1.97677029        1 
H       1.08154607       1.14820875       1.70653279        1 
