29
Lattice="0.0 0.0 0.0 0.0 0.0 0.0 0.0 0.0 0.0" Properties=species:S:1:pos:R:3:Z:I:1 pbc="F F F"
C      -0.74088321       0.28605051       0.97655982        6 
C       0.72496026       0.78677830       0.70062639        6 
C      -1.03596342      -1.13437602       0.54292799        6 
C       1.59739032      -0.13086201      -0.13018100        6 
O      -2.22110282      -1.24600641      -0.08755616        8 
O      -0.31688359      -2.07448623       0.78172653        8 
O       2.76858039      -0.37454346       0.49590085        8 
O       1.32423382      -0.57090279      -1.22001887        8 
C       3.67121192      -1.26031160      -0.19210480        6 
C      -2.58144968      -2.57134129      -0.52198769        6 
C      -1.63479921       1.44113651       0.40142298        6 
C      -1.44683719       1.46014501      -1.10501317        6 
C      -0.20574506       1.88921916      -1.35186870        6 
C       0.45651718       2.17418787      -0.01403724        6 
C      -0.76595758       2.65565883       0.80084446        6 
H       3.20119172      -2.23363522      -0.33970634        1 
H      -2.68227936      -3.23988670       0.33450166        1 
H       0.29975870       1.91008043      -2.30674041        1 
H       4.54144908      -1.34724401       0.45472677        1 
H       3.95167239      -0.84457070      -1.16125951        1 
H      -3.53459657      -2.45819381      -1.03401737        1 
H      -1.82289376      -2.96493508      -1.19952816        1 
H       1.33540191       2.81745154      -0.03176443        1 
H      -2.66125661       1.41235196       0.76193065        1 
H      -1.16930833       3.59885193       0.42891614        1 
H      -0.57692286       2.73159655       1.87626159        1 
H      -2.15672654       1.06345371      -1.81679088        1 
H      -0.87235809       0.25617249       2.06406747        1 
H       1.23648087       0.96542235       1.64495809        1 
