29
Lattice="0.0 0.0 0.0 0.0 0.0 0.0 0.0 0.0 0.0" Properties=species:S:1:pos:R:3:Z:I:1 pbc="F F F"
C      -0.83846115       0.25583298       1.05172362        6 
C       0.57729758       0.83776672       0.67222767        6 
C      -1.08780795      -1.20847149       0.73593705        6 
C       1.54283482      -0.07599129      -0.04678770        6 
O      -1.54831610      -1.42783184      -0.50278462        8 
O      -0.95693644      -2.08426043       1.56175288        8 
O       2.79133669       0.08165546       0.45332632        8 
O       1.29339207      -0.81575572      -0.96695686        8 
C       3.82594001      -0.69101333      -0.18331914        6 
C      -1.71236737      -2.80313130      -0.88808491        6 
C      -1.81508538       1.30441600       0.38564499        6 
C      -1.66090213       1.22841842      -1.12471166        6 
C      -0.45908631       1.72105707      -1.43786151        6 
C       0.21011870       2.14121694      -0.14461289        6 
C      -1.02117998       2.60182698       0.66896293        6 
H       3.60444302      -1.75671792      -0.11097656        1 
H      -2.40420641      -3.31276767      -0.21601474        1 
H       0.01727565       1.71382216      -2.40846538        1 
H       4.73968021      -0.45167672       0.35606975        1 
H       3.91690850      -0.41438787      -1.23514823        1 
H      -2.10801497      -2.77368522      -1.90106184        1 
H      -0.74656244      -3.30994375      -0.87226752        1 
H       1.04703359       2.83365680      -0.22708995        1 
H      -2.83215534       1.24168472       0.77108960        1 
H      -1.49666226       3.48441788       0.23861243        1 
H      -0.81215345       2.77096171       1.72941602        1 
H      -2.36226229       0.74694555      -1.78939835        1 
H      -0.93952097       0.31468523       2.13560916        1 
H       1.07652956       1.15161990       1.58866325        1 
