29
Lattice="0.0 0.0 0.0 0.0 0.0 0.0 0.0 0.0 0.0" Properties=species:S:1:pos:R:3:Z:I:1 pbc="F F F"
C      -0.37280516      -0.96063893       0.70015787        6 
C      -0.76223202       0.55202605       0.93356298        6 
C       0.90137806      -1.26066401      -0.06263441        6 
C       0.04551357       1.66698183       0.29494709        6 
O       1.92573404      -1.46708815       0.79476554        8 
O       1.00881228      -1.37048867      -1.25945557        8 
O       1.33703573       1.34599643       0.10202853        8 
O      -0.40970071       2.75769148       0.04404903        8 
C       2.15828297       2.35353455      -0.51773021        6 
C       3.20699289      -1.70881444       0.19184463        6 
C      -1.66848515      -1.53215760       0.01831096        6 
C      -1.85237751      -0.82212723      -1.31481396        6 
C      -2.21953222       0.43753493      -1.05543871        6 
C      -2.26337461       0.59640381       0.45520605        6 
C      -2.73980523      -0.81160844       0.86892468        6 
H       1.75688772       2.61602855      -1.49714457        1 
H       3.49261535      -0.86637257      -0.44030371        1 
H      -2.33918125       1.24827101      -1.76043885        1 
H       3.14323439       1.90294487      -0.61690136        1 
H       2.20361677       3.24579510       0.10785502        1 
H       3.90396962      -1.81854405       1.02012463        1 
H       3.18312576      -2.61735961      -0.41201295        1 
H      -2.80613812       1.45736157       0.83775169        1 
H      -1.69056588      -2.62120269      -0.00780858        1 
H      -3.75491238      -1.02253476       0.52950170        1 
H      -2.65725218      -1.01177556       1.94171728        1 
H      -1.61039259      -1.25234750      -2.27535679        1 
H      -0.25507149      -1.42350023       1.68124443        1 
H      -0.71529479       0.75506105       2.00894490        1 
