29
Lattice="0.0 0.0 0.0 0.0 0.0 0.0 0.0 0.0 0.0" Properties=species:S:1:pos:R:3:Z:I:1 pbc="F F F"
C      -0.71121877       0.47002058       0.94064953        6 
C       0.84295789       0.71643648       0.90901129        6 
C      -1.20863548      -0.83380875       0.34490602        6 
C       1.72724006      -0.48001969       0.61182365        6 
O      -2.52766050      -0.74501989       0.05824637        8 
O      -0.57007121      -1.84375666       0.18581673        8 
O       1.98118651      -0.63190883      -0.70152728        8 
O       2.17864947      -1.19929430       1.46932541        8 
C       2.68229556      -1.83353006      -1.06713422        6 
C      -3.13963561      -1.93135501      -0.48069383        6 
C      -1.26755633       1.73340819       0.16916163        6 
C      -0.90188528       1.51104027      -1.29131688        6 
C       0.42486382       1.63713073      -1.39367108        6 
C       0.96555861       1.98046458      -0.01515552        6 
C      -0.21955327       2.79925695       0.55168868        6 
H       3.66166900      -1.87089578      -0.58788537        1 
H      -3.07782009      -2.75291086       0.23467684        1 
H       1.03810198       1.43591699      -2.25976637        1 
H       2.78590570      -1.79102601      -2.14956433        1 
H       2.09670665      -2.70440675      -0.76939408        1 
H      -4.17719893      -1.66240933      -0.66648031        1 
H      -2.64658156      -2.22567615      -1.40840264        1 
H       1.95381320       2.43736832       0.01396257        1 
H      -2.31246666       1.94456030       0.38310714        1 
H      -0.37532933       3.74008364       0.02117332        1 
H      -0.14898804       2.98631672       1.62722460        1 
H      -1.59349550       1.18290118      -2.05564131        1 
H      -1.06186579       0.47719958       1.97707080        1 
H       1.14006802       1.01056763       1.91720768        1 
