29
Lattice="0.0 0.0 0.0 0.0 0.0 0.0 0.0 0.0 0.0" Properties=species:S:1:pos:R:3:Z:I:1 pbc="F F F"
C      -0.72399751       0.52307944      -0.99845638        6 
C      -0.50387200      -1.00713291      -0.70760076        6 
C       0.29689112       1.53302123      -0.52434078        6 
C       0.79218663      -1.41804351      -0.04478639        6 
O       0.84421907       1.21557798       0.66464984        8 
O       0.55602325       2.55054907      -1.12296247        8 
O       1.84518558      -1.05839197      -0.81294861        8 
O       0.89699184      -2.04497611       0.97960580        8 
C       3.14647299      -1.36803912      -0.28675183        6 
C       1.81221125       2.13951598       1.18975894        6 
C      -2.15424172       0.76915092      -0.34795525        6 
C      -2.00898778       0.60458814       1.15569029        6 
C      -1.79365981      -0.69171638       1.40178510        6 
C      -1.80003835      -1.41977127       0.06723986        6 
C      -2.83536601      -0.57086258      -0.70806117        6 
H       3.28770543      -0.88250889       0.68044459        1 
H       1.35914045       3.11891466       1.35047058        1 
H      -1.53138324      -1.14966670       2.34440745        1 
H       3.85465261      -0.98275573      -1.01709393        1 
H       3.26573804      -2.44597852      -0.16685556        1 
H       2.13946397       1.70806720       2.13318559        1 
H       2.65105983       2.24316265       0.49943416        1 
H      -1.95439609      -2.49654101       0.10592728        1 
H      -2.61945625       1.68780921      -0.70155782        1 
H      -3.84093529      -0.65155873      -0.29239866        1 
H      -2.86221130      -0.77662002      -1.78276956        1 
H      -1.95894586       1.42136877       1.86306138        1 
H      -0.80488581       0.68849957      -2.07239692        1 
H      -0.49587039      -1.51678920      -1.67669427        1 
