29
Lattice="0.0 0.0 0.0 0.0 0.0 0.0 0.0 0.0 0.0" Properties=species:S:1:pos:R:3:Z:I:1 pbc="F F F"
C      -0.76515627       0.40060562       0.87793617        6 
C       0.79284356       0.49485848       0.85694969        6 
C      -1.40802473      -0.69319465       0.04981895        6 
C       1.56277240      -0.77455811       0.56380448        6 
O      -2.73904892      -0.72586525       0.31027447        8 
O      -0.87355469      -1.42885061      -0.73816428        8 
O       2.63338894      -0.54240091      -0.22656767        8 
O       1.28046370      -1.86029311       1.00307910        8 
C       3.41898353      -1.70096072      -0.56533333        6 
C      -3.49869191      -1.70652695      -0.41845223        6 
C      -1.15955145       1.80584118       0.22059068        6 
C      -0.79409389       1.68437306      -1.25375094        6 
C       0.54023133       1.66456824      -1.33723134        6 
C       1.09121113       1.81076976       0.06921092        6 
C      -0.00339703       2.70421099       0.70516977        6 
H       3.84150157      -2.15333929       0.33320015        1 
H      -3.15010675      -2.71261024      -0.17961128        1 
H       1.13867113       1.46598510      -2.21561996        1 
H       4.20845173      -1.33515842      -1.21847586        1 
H       2.79929617      -2.43579581      -1.08082059        1 
H      -4.52951381      -1.57234562      -0.09746311        1 
H      -3.40668389      -1.54247983      -1.49348866        1 
H       2.12426926       2.14023277       0.15378983        1 
H      -2.17886449       2.10975327       0.44887832        1 
H      -0.04468154       3.70060048       0.26205847        1 
H       0.07128583       2.78649202       1.79348547        1 
H      -1.50091109       1.49721633      -2.05164959        1 
H      -1.15602507       0.33778550       1.89287107        1 
H       1.08621203       0.69603378       1.89604438        1 
