29
Lattice="0.0 0.0 0.0 0.0 0.0 0.0 0.0 0.0 0.0" Properties=species:S:1:pos:R:3:Z:I:1 pbc="F F F"
C       0.09792753       0.77651359       0.80515460        6 
C       0.95816049      -0.52783046       0.74329847        6 
C      -1.14463109       0.84260495      -0.05369713        6 
C       0.38052394      -1.80174651       0.16874574        6 
O      -2.07624435       1.62929819       0.53783581        8 
O      -1.30394030       0.33672265      -1.13636065        8 
O      -0.92627795      -1.93499822       0.46873373        8 
O       1.04305042      -2.68280638      -0.32461788        8 
C      -1.56185668      -3.14585028       0.02306067        6 
C      -3.28952595       1.83252582      -0.20859223        6 
C       1.14872882       1.86217297       0.28861799        6 
C       1.38881180       1.57379250      -1.18576595        6 
C       2.07431394       0.42911422      -1.26606944        6 
C       2.32599111      -0.05820392       0.14855774        6 
C       2.45410295       1.29426210       0.88946687        6 
H      -1.49344849      -3.22895359      -1.06235427        1 
H      -3.78928625       0.87942648      -0.38929195        1 
H       2.30791809      -0.13492989      -2.15861077        1 
H      -2.60069880      -3.05901924       0.33390596        1 
H      -1.09334973      -4.01704935       0.48403685        1 
H      -3.90777772       2.47837949       0.41110969        1 
H      -3.07577961       2.30935929      -1.16672564        1 
H       3.12202789      -0.78788254       0.27725963        1 
H       0.86699791       2.88101473       0.54989908        1 
H       3.33221667       1.86123619       0.57766038        1 
H       2.43530128       1.20450316       1.97969916        1 
H       0.94490080       2.12466787      -2.00367455        1 
H      -0.18590622       1.00899733       1.83033388        1 
H       1.14626598      -0.81742731       1.78566428        1 
