29
Lattice="0.0 0.0 0.0 0.0 0.0 0.0 0.0 0.0 0.0" Properties=species:S:1:pos:R:3:Z:I:1 pbc="F F F"
C      -0.70742015       0.76571873       0.72712942        6 
C       0.75369658       0.20772730       0.87055506        6 
C      -1.69199904      -0.02244790      -0.11850574        6 
C       1.03290249      -1.16576486       0.30149183        6 
O      -2.66993428      -0.53807976       0.66068112        8 
O      -1.65094081      -0.17236048      -1.31316929        8 
O       2.36511492      -1.37918619       0.20911198        8 
O       0.21037763      -1.98935152      -0.01192644        8 
C       2.76008949      -2.66770737      -0.29917439        6 
C      -3.62286469      -1.37861485      -0.01421294        6 
C      -0.43363558       2.19597854       0.10781328        6 
C       0.15077975       1.99270821      -1.28398967        6 
C       1.39273262       1.52015610      -1.13883260        6 
C       1.65535894       1.38658154       0.34892701        6 
C       0.84305433       2.58640674       0.88525196        6 
H       2.40521320      -3.46273441       0.35869219        1 
H      -3.11193932      -2.22649855      -0.47268824        1 
H       2.05493131       1.16539459      -1.91714777        1 
H       3.84733808      -2.64805389      -0.32506719        1 
H       2.35273133      -2.82168690      -1.29928279        1 
H      -4.31227811      -1.71469837       0.75753966        1 
H      -4.15370357      -0.81706542      -0.78500875        1 
H       2.69391520       1.29678938       0.65882435        1 
H      -1.29299618       2.86177123       0.17816417        1 
H       1.25278719       3.54417658       0.56097147        1 
H       0.71571172       2.58492536       1.97218670        1 
H      -0.40369658       2.09957751      -2.20451712        1 
H      -1.14615806       0.87790415       1.71758420        1 
H       0.95519320       0.09025959       1.94260363        1 
