29
Lattice="0.0 0.0 0.0 0.0 0.0 0.0 0.0 0.0 0.0" Properties=species:S:1:pos:R:3:Z:I:1 pbc="F F F"
C      -0.73453313       0.37360277       0.97819807        6 
C       0.80948485       0.66123018       0.87369338        6 
C      -1.25280344      -0.88323562       0.29081801        6 
C       1.72931384      -0.51328347       0.60455216        6 
O      -2.55752047      -0.72735735      -0.04569396        8 
O      -0.66574930      -1.92301563       0.14022842        8 
O       2.33297057      -0.42538093      -0.60060228        8 
O       1.90189668      -1.42279654       1.37438778        8 
C       3.16742996      -1.54164031      -0.96287884        6 
C      -3.19350711      -1.87019902      -0.64506871        6 
C      -1.33276084       1.67221695       0.28845726        6 
C      -1.05495040       1.48698662      -1.19981001        6 
C       0.26420304       1.61260932      -1.37856242        6 
C       0.88367945       1.93303661      -0.02901742        6 
C      -0.26848437       2.73627605       0.62428242        6 
H       3.98854186      -1.65287333      -0.25311092        1 
H      -3.18384764      -2.71881835       0.04072495        1 
H       0.82686705       1.42591461      -2.28228624        1 
H       3.54753517      -1.30952023      -1.95559575        1 
H       2.57772825      -2.45914335      -0.97808911        1 
H      -4.21435558      -1.55700365      -0.85349766        1 
H      -2.68190415      -2.15041716      -1.56732201        1 
H       1.87077274       2.39139429      -0.04798740        1 
H      -2.36358977       1.87635741       0.56658771        1 
H      -0.46218999       3.68426846       0.11992748        1 
H      -0.13119875       2.90833733       1.69587626        1 
H      -1.79095995       1.17514747      -1.92789356        1 
H      -1.03964676       0.29966278       2.02477637        1 
H       1.11593035       0.97203702       1.87801471        1 
