29
Lattice="0.0 0.0 0.0 0.0 0.0 0.0 0.0 0.0 0.0" Properties=species:S:1:pos:R:3:Z:I:1 pbc="F F F"
C      -0.78590135       0.23312761       0.75792979        6 
C       0.74522364       0.58367115       0.76541310        6 
C      -1.28078388      -1.01780752       0.06890148        6 
C       1.71807062      -0.24335829      -0.05853040        6 
O      -2.54185903      -1.28272661       0.50473865        8 
O      -0.72155139      -1.69146536      -0.75555070        8 
O       2.58111464      -0.89115678       0.76719900        8 
O       1.75390246      -0.35258270      -1.25492419        8 
C       3.53110811      -1.75416495       0.11630016        6 
C      -3.19047823      -2.41714317      -0.09609627        6 
C      -1.46532960       1.55903101       0.22608095        6 
C      -1.02846535       1.75240386      -1.21215327        6 
C       0.27108824       2.06555919      -1.19833404        6 
C       0.72335231       2.08753263       0.25341720        6 
C      -0.56613852       2.59343803       0.93601699        6 
H       3.01110973      -2.51513678      -0.46741719        1 
H      -2.62555563      -3.32997382       0.10005503        1 
H       0.92780728       2.15487575      -2.05082333        1 
H       4.10768176      -2.20969422       0.91872053        1 
H       4.18180339      -1.17933920      -0.54506599        1 
H      -4.17307915      -2.46909537       0.36824467        1 
H      -3.28288491      -2.28000329      -1.17483921        1 
H       1.64899077       2.62200265       0.46420734        1 
H      -2.53417484       1.58927835       0.42837756        1 
H      -0.81091346       3.61884842       0.65454418        1 
H      -0.55926325       2.49707373       2.02591569        1 
H      -1.63811707       1.53739346      -2.07971528        1 
H      -1.10047509       0.12046366       1.79855097        1 
H       1.09786171       0.56200977       1.79554264        1 
