29
Lattice="0.0 0.0 0.0 0.0 0.0 0.0 0.0 0.0 0.0" Properties=species:S:1:pos:R:3:Z:I:1 pbc="F F F"
C       0.34806236       1.06289169       0.62389734        6 
C       0.71532848      -0.41271446       1.02445406        6 
C      -1.00184910       1.37393144       0.02157878        6 
C       0.00464688      -1.60447863       0.39432192        6 
O      -1.99239102       1.04602332       0.87822750        8 
O      -1.18536326       1.98423621      -1.00393895        8 
O      -1.15137142      -1.31275692      -0.22350711        8 
O       0.48749579      -2.71328132       0.38858401        8 
C      -1.78690821      -2.39634282      -0.92738364        6 
C      -3.33032820       1.28544680       0.41559826        6 
C       1.58672056       1.55126267      -0.18387571        6 
C       1.73137790       0.66330330      -1.40794863        6 
C       2.13920677      -0.53974381      -0.98911991        6 
C       2.22884844      -0.48733337       0.53264195        6 
C       2.69787015       0.96862244       0.72253038        6 
H      -1.11698963      -2.79654563      -1.68941459        1 
H      -3.51487929       0.73493797      -0.50889805        1 
H       2.25717230      -1.43931207      -1.57784066        1 
H      -2.67267286      -1.96202532      -1.38564832        1 
H      -2.06152493      -3.19258005      -0.23427424        1 
H      -3.98254721       0.92635874       1.20886796        1 
H      -3.49351000       2.34936149       0.23572679        1 
H       2.79425347      -1.28157589       1.01277014        1 
H       1.58419653       2.62424864      -0.36427080        1 
H       3.69872854       1.13321954       0.32100209        1 
H       2.65020989       1.32096976       1.75728597        1 
H       1.45068621       0.95411027      -2.41070221        1 
H       0.33143289       1.62686491       1.56358332        1 
H       0.65320502      -0.54388945       2.10690069        1 
