29
Lattice="0.0 0.0 0.0 0.0 0.0 0.0 0.0 0.0 0.0" Properties=species:S:1:pos:R:3:Z:I:1 pbc="F F F"
C      -0.73985128       0.40270986      -1.02873956        6 
C      -0.36667664      -1.07486284      -0.64833813        6 
C       0.05006188       1.57508210      -0.47875445        6 
C       0.98794711      -1.34828303      -0.03554540        6 
O       0.94262802       1.23728621       0.46673855        8 
O      -0.17773823       2.71946451      -0.79553373        8 
O       1.96949901      -1.00074305      -0.89749731        8 
O       1.18867229      -1.89845375       1.01872346        8 
C       3.31425617      -1.17497647      -0.42436006        6 
C       1.62524280       2.31990405       1.12314354        6 
C      -2.22137684       0.50907189      -0.45073595        6 
C      -2.07431064       0.51985797       1.06460572        6 
C      -1.68385892      -0.70378854       1.43815081        6 
C      -1.59556886      -1.56136700       0.18518769        6 
C      -2.72439122      -0.93329954      -0.66718435        6 
H       3.47423607      -0.58651218       0.48100507        1 
H       0.90841788       2.96402190       1.63481919        1 
H      -1.36621585      -1.02459078       2.42000798        1 
H       3.95523339      -0.82009114      -1.22859003        1 
H       3.51466275      -2.22555338      -0.20830666        1 
H       2.29301871       1.84646650       1.83921608        1 
H       2.18660507       2.91217112       0.39927592        1 
H      -1.61347287      -2.63898876       0.33644736        1 
H      -2.78506542       1.32551018      -0.89642265        1 
H      -3.71536293      -1.09457500      -0.24033490        1 
H      -2.71590846      -1.25248830      -1.71402159        1 
H      -2.14338227       1.40582271       1.68219345        1 
H      -0.76349488       0.52871197      -2.11191205        1 
H      -0.35479794      -1.63971479      -1.58657779        1 
