29
Lattice="0.0 0.0 0.0 0.0 0.0 0.0 0.0 0.0 0.0" Properties=species:S:1:pos:R:3:Z:I:1 pbc="F F F"
C      -0.68783310       0.75826808       0.77698831        6 
C       0.77633145       0.19220593       0.79526719        6 
C      -1.73680845       0.01966870      -0.03754703        6 
C       1.05660227      -1.11153941       0.08565377        6 
O      -2.43546373      -0.81955750       0.76314976        8 
O      -1.94046819       0.12454417      -1.21898701        8 
O       2.28157519      -1.56506939       0.44874083        8 
O       0.35237358      -1.68622812      -0.70489690        8 
C       2.71058503      -2.78952944      -0.17510722        6 
C      -3.38817030      -1.66612504       0.09348434        6 
C      -0.45860805       2.22676141       0.24178181        6 
C       0.01691180       2.12203875      -1.20048262        6 
C       1.26306282       1.63783364      -1.18219368        6 
C       1.63993087       1.40763156       0.26816466        6 
C       0.87475188       2.56749201       0.94412938        6 
H       2.03632625      -3.60717601       0.08542693        1 
H      -2.88243480      -2.27740498      -0.65515984        1 
H       1.85807568       1.33333302      -2.03301492        1 
H       3.70859797      -2.97875884       0.21395181        1 
H       2.73450102      -2.67867172      -1.26025182        1 
H      -3.82194226      -2.28873499       0.87318818        1 
H      -4.15996177      -1.06630416      -0.39168458        1 
H       2.69862009       1.29468690       0.49312994        1 
H      -1.30789277       2.88456343       0.42195799        1 
H       1.26246460       3.54457171       0.65211654        1 
H       0.83399457       2.49235553       2.03507564        1 
H      -0.60523599       2.29140654      -2.06601987        1 
H      -1.05145505       0.79737211       1.80406990        1 
H       1.06345764       0.02130472       1.83608074        1 
