29
Lattice="0.0 0.0 0.0 0.0 0.0 0.0 0.0 0.0 0.0" Properties=species:S:1:pos:R:3:Z:I:1 pbc="F F F"
C      -0.76424889       0.70692486       0.72212246        6 
C       0.74450041       0.34313352       0.96875681        6 
C      -1.57078268      -0.27143610      -0.10381262        6 
C       1.15447150      -1.05399791       0.55373738        6 
O      -2.76434033      -0.51451773       0.48218010        8 
O      -1.24061378      -0.75336885      -1.15901350        8 
O       2.33329845      -1.07338144      -0.09833279        8 
O       0.51883440      -2.04688919       0.81292552        8 
C       2.78421042      -2.36852475      -0.53983847        6 
C      -3.62550312      -1.43772651      -0.20924294        6 
C      -0.63341016       2.11409852      -0.00137197        6 
C       0.02215456       1.87759298      -1.35266765        6 
C       1.30047390       1.55611277      -1.13291549        6 
C       1.52227809       1.56402794       0.36827591        6 
C       0.56077883       2.70258258       0.78283731        6 
H       2.95754905      -3.02493227       0.31437565        1 
H      -3.12796717      -2.40151759      -0.32530386        1 
H       2.02275273       1.21177614      -1.85932098        1 
H       3.71232196      -2.18411390      -1.07647853        1 
H       2.04049787      -2.82085825      -1.19695009        1 
H      -4.50980141      -1.53382904       0.41707380        1 
H      -3.89253307      -1.04934640      -1.19362707        1 
H       2.55445026       1.62761328       0.70675032        1 
H      -1.56554725       2.67782753      -0.00161022        1 
H       0.87195410       3.67505958       0.39808494        1 
H       0.38994301       2.76806250       1.86179382        1 
H      -0.50553124       1.84556098      -2.29550676        1 
H      -1.27694594       0.84249161       1.67298465        1 
H       0.89726507       0.34170352       2.05429338        1 
