29
Lattice="0.0 0.0 0.0 0.0 0.0 0.0 0.0 0.0 0.0" Properties=species:S:1:pos:R:3:Z:I:1 pbc="F F F"
C      -0.64133106       0.96936304       0.66927124        6 
C       0.64984815       0.11408469       0.94687422        6 
C      -1.77694931       0.30820886      -0.08248740        6 
C       0.76470673      -1.20792712       0.20736416        6 
O      -2.46708548      -0.51019898       0.73648549        8 
O      -2.09978457       0.54957309      -1.22007160        8 
O       2.05692516      -1.59998590       0.13915624        8 
O      -0.14384103      -1.88190095      -0.21039963        8 
C       2.29901916      -2.86824427      -0.49742917        6 
C      -3.48366014      -1.31281319       0.11265681        6 
C      -0.07272554       2.26282242       0.00489244        6 
C       0.60171944       1.86356286      -1.29836771        6 
C       1.72449971       1.20585418      -0.98799705        6 
C       1.79815868       1.12110200       0.53067253        6 
C       1.16474190       2.47524995       0.90904664        6 
H       1.77961845      -3.66838602       0.03216531        1 
H      -3.02469392      -1.97976338      -0.61857435        1 
H       2.39799888       0.69807953      -1.66506252        1 
H       3.37601088      -3.01400676      -0.45132003        1 
H       1.95816053      -2.84387320      -1.53371954        1 
H      -3.93770365      -1.88509919       0.91897324        1 
H      -4.22674434      -0.68296597      -0.37850598        1 
H       2.76640043       0.87398845       0.95865700        1 
H      -0.80321871       3.06763040      -0.05925815        1 
H       1.77727758       3.32110814       0.59300391        1 
H       0.92167469       2.57154498       1.97164507        1 
H       0.16769732       2.00302941      -2.27769586        1 
H      -1.06044499       1.23712609       1.64280762        1 
H       0.71718147      -0.12801508       2.01144693        1 
