29
Lattice="0.0 0.0 0.0 0.0 0.0 0.0 0.0 0.0 0.0" Properties=species:S:1:pos:R:3:Z:I:1 pbc="F F F"
C      -0.53691639       0.83764525      -0.75235989        6 
C      -0.60934026      -0.74987085      -0.81943315        6 
C       0.58158316       1.43544894       0.07670351        6 
C       0.40793337      -1.52733320      -0.00601464        6 
O       1.71472477       1.52372351      -0.65155006        8 
O       0.49360764       1.83666523       1.21185265        8 
O       1.63159784      -1.44478806      -0.57152448        8 
O       0.18497832      -2.17071319       0.98966924        8 
C       2.69296247      -2.13643975       0.11035839        6 
C       2.86873789       2.03935082       0.03322617        6 
C      -1.98119660       1.21835385      -0.28084163        6 
C      -2.17478330       0.69414260       1.13460315        6 
C      -2.24697923      -0.63806954       1.06331700        6 
C      -2.09513744      -1.02913157      -0.40090030        6 
C      -2.79495059       0.17131004      -1.07844843        6 
H       2.80317473      -1.75868819       1.12817841        1 
H       3.11100265       1.41561910       0.89553550        1 
H      -2.27658970      -1.34005287       1.88310306        1 
H       3.58916013      -1.93729228      -0.47322001        1 
H       2.48963091      -3.20786313       0.14801991        1 
H       3.67483184       2.01258101      -0.69673483        1 
H       2.69038362       3.06121120       0.37173233        1 
H      -2.43374532      -2.02870887      -0.67107818        1 
H      -2.21718322       2.26936965      -0.44424032        1 
H      -3.86191724       0.21255975      -0.85602987        1 
H      -2.64107542       0.22213831      -2.16120459        1 
H      -2.13301336       1.30378896       2.02472914        1 
H      -0.37936553       1.19689630      -1.77106535        1 
H      -0.45172483      -1.04280861      -1.86021782        1 
