29
Lattice="0.0 0.0 0.0 0.0 0.0 0.0 0.0 0.0 0.0" Properties=species:S:1:pos:R:3:Z:I:1 pbc="F F F"
C      -0.64646189       0.65628046      -0.97483115        6 
C      -0.66447305      -0.90648897      -0.76543547        6 
C       0.60416510       1.42882717      -0.60762761        6 
C       0.51256911      -1.61498023      -0.12698170        6 
O       0.82401400       1.48654862       0.72138914        8 
O       1.31781063       1.96876043      -1.41892060        8 
O       1.68695432      -1.02360045      -0.41372631        8 
O       0.42594727      -2.66427188       0.46502607        8 
C       2.87100169      -1.68316291       0.06934932        6 
C       2.03243321       2.14950082       1.12660204        6 
C      -1.97039084       1.09109216      -0.22900898        6 
C      -1.83213494       0.75912680       1.25043528        6 
C      -1.86880584      -0.57154653       1.37475112        6 
C      -2.02289193      -1.15407753      -0.02077206        6 
C      -2.89569431      -0.06384953      -0.68193425        6 
H       2.85313944      -1.74284044       1.15855813        1 
H       2.03362430       3.18841864       0.79360105        1 
H      -1.69558499      -1.15632089       2.26760941        1 
H       3.70171589      -1.06921642      -0.27120161        1 
H       2.94193819      -2.69002774      -0.34472389        1 
H       2.04489185       2.09359083       2.21315190        1 
H       2.90025369       1.63915972       0.70493417        1 
H      -2.36261972      -2.18545466      -0.08283406        1 
H      -2.27907358       2.10744994      -0.47147795        1 
H      -3.89118355      -0.00162427      -0.24015734        1 
H      -2.97884936      -0.16017953      -1.76898040        1 
H      -1.62655099       1.48354836       2.02516855        1 
H      -0.77371764       0.85753762      -2.03839476        1 
H      -0.72385522      -1.36600643      -1.75962315        1 
