29
Lattice="0.0 0.0 0.0 0.0 0.0 0.0 0.0 0.0 0.0" Properties=species:S:1:pos:R:3:Z:I:1 pbc="F F F"
C       0.11923030       0.94206869       0.89315412        6 
C       1.04064204      -0.33333966       0.94183946        6 
C      -1.37169475       0.75259251       0.71632505        6 
C       0.62485725      -1.64300367       0.28675515        6 
O      -1.83652760       1.34582737      -0.40489059        8 
O      -2.07635639       0.16377575       1.49794204        8 
O      -0.66107534      -1.69960637      -0.08529553        8 
O       1.41620655      -2.53145984       0.06837889        8 
C      -1.08333633      -2.89840478      -0.75963401        6 
C      -3.24700381       1.20596149      -0.64997623        6 
C       0.88827767       1.91641503      -0.05448119        6 
C       1.01767279       1.26336186      -1.42030927        6 
C       1.88470922       0.25216368      -1.30553205        6 
C       2.32082267       0.18829424       0.15392303        6 
C       2.31626535       1.69114817       0.49901780        6 
H      -0.54827883      -3.01028812      -1.70419999        1 
H      -3.82441954       1.65779623       0.15816361        1 
H       2.14151607      -0.48506782      -2.05424613        1 
H      -2.14935615      -2.76944706      -0.93330829        1 
H      -0.89889721      -3.77284150      -0.13480693        1 
H      -3.43208787       1.72400429      -1.58870183        1 
H      -3.51406744       0.15134431      -0.73264212        1 
H       3.21535830      -0.39033861       0.36865071        1 
H       0.49505482       2.93118453      -0.04044507        1 
H       3.07612995       2.24227668      -0.05719290        1 
H       2.41304211       1.90441561       1.56764026        1 
H       0.42430723       1.52760795      -2.28435584        1 
H       0.17463156       1.37363518       1.89876291        1 
H       1.29997820      -0.57337431       1.97488301        1 
