29
Lattice="0.0 0.0 0.0 0.0 0.0 0.0 0.0 0.0 0.0" Properties=species:S:1:pos:R:3:Z:I:1 pbc="F F F"
C      -0.63281345       0.73991956      -0.83548775        6 
C      -0.47388263      -0.83262611      -0.72577948        6 
C       0.35028976       1.54572734      -0.00941866        6 
C       0.67692445      -1.31375686       0.13074714        6 
O       1.50968160       1.69288910      -0.69646252        8 
O       0.19043121       1.96652825       1.10706764        8 
O       1.67536262      -1.79240537      -0.64926364        8 
O       0.73459342      -1.29591071       1.33514796        8 
C       2.84635332      -2.25806658       0.04454480        6 
C       2.57920325       2.35087470       0.00774498        6 
C      -2.14122272       0.94890878      -0.43926651        6 
C      -2.29713267       0.59394185       1.03259164        6 
C      -2.14955129      -0.72937945       1.14541521        6 
C      -1.90260668      -1.28370998      -0.24805718        6 
C      -2.76118995      -0.31002297      -1.09025869        6 
H       3.29052414      -1.44946120       0.62754429        1 
H       2.82490892       1.80423801       0.91969942        1 
H      -2.07948359      -1.30447537       2.05712932        1 
H       3.53073637      -2.59125303      -0.73253888        1 
H       2.59283688      -3.08204906       0.71344661        1 
H       3.42147152       2.35209082      -0.68072384        1 
H       2.29514149       3.37143305       0.26873779        1 
H      -2.07421834      -2.35114728      -0.38622134        1 
H      -2.53155670       1.91827028      -0.74776351        1 
H      -3.82743043      -0.40625892      -0.88153096        1 
H      -2.58632166      -0.38563601      -2.16822119        1 
H      -2.37201236       1.31368214       1.83353447        1 
H      -0.47824127       1.02024453      -1.87856223        1 
H      -0.29836842      -1.22061508      -1.72920802        1 
