29
Lattice="0.0 0.0 0.0 0.0 0.0 0.0 0.0 0.0 0.0" Properties=species:S:1:pos:R:3:Z:I:1 pbc="F F F"
C       0.21322574       0.85757408       0.74690698        6 
C       0.87700947      -0.56307025       0.80178999        6 
C      -1.03498339       1.04389073      -0.09069952        6 
C       0.17668863      -1.79021059       0.25976700        6 
O      -2.00540401       1.64053647       0.64302064        8 
O      -1.17576853       0.75448357      -1.25244890        8 
O      -1.16213538      -1.66224592       0.24350149        8 
O       0.74609549      -2.83109233       0.02974384        8 
C      -1.90934275      -2.81318402      -0.18972445        6 
C      -3.24408732       1.89124696      -0.04356646        6 
C       1.40888143       1.72870744       0.16197684        6 
C       1.65029542       1.26707490      -1.26744266        6 
C       2.19324647       0.04648727      -1.21394500        6 
C       2.32519781      -0.32962928       0.24982202        6 
C       2.60703142       1.05728761       0.86998971        6 
H      -1.65159927      -3.06239332      -1.21977624        1 
H      -3.67247394       0.95618367      -0.40824747        1 
H       2.38873381      -0.62232311      -2.04102583        1 
H      -2.95496302      -2.52204821      -0.11911259        1 
H      -1.70112002      -3.66924457       0.45366876        1 
H      -3.89815772       2.35041090       0.69465105        1 
H      -3.08633511       2.56409013      -0.88812104        1 
H       3.00498887      -1.14470288       0.48616813        1 
H       1.26628034       2.79855812       0.31031293        1 
H       3.56323308       1.47172811       0.54766996        1 
H       2.54171309       1.07687419       1.96217990        1 
H       1.31047809       1.79078214      -2.14947261        1 
H      -0.01474708       1.19433191       1.75674268        1 
H       0.97617052      -0.81492593       1.86559204        1 
