29
Lattice="0.0 0.0 0.0 0.0 0.0 0.0 0.0 0.0 0.0" Properties=species:S:1:pos:R:3:Z:I:1 pbc="F F F"
C       0.61235983       0.94613097       0.74207407        6 
C       0.67509777      -0.60579531       0.98867508        6 
C      -0.61815920       1.56125284       0.11334667        6 
C      -0.49647624      -1.46890957       0.57299338        6 
O      -1.75018906       0.98571573       0.56715128        8 
O      -0.60855674       2.53600047      -0.59881343        8 
O      -0.80495874      -1.35385088      -0.73444395        8 
O      -1.06805940      -2.22577918       1.32166134        8 
C      -1.93403727      -2.11837627      -1.18674213        6 
C      -2.98793298       1.53523314       0.08212310        6 
C       1.94763285       1.25487652      -0.01598597        6 
C       1.83913027       0.61278498      -1.38736114        6 
C       1.89425683      -0.71190283      -1.21502359        6 
C       2.04097311      -0.98026461       0.27470200        6 
C       2.88586612       0.24788041       0.68752644        6 
H      -1.76744568      -3.18494976      -1.02898538        1 
H      -3.03168151       1.46850604      -1.00612795        1 
H       1.73946088      -1.47458021      -1.96525733        1 
H      -2.02699792      -1.89772118      -2.24825372        1 
H      -2.83509372      -1.81438222      -0.65101893        1 
H      -3.76937951       0.92981043       0.53630654        1 
H      -3.08750702       2.57920637       0.38274620        1 
H       2.40969638      -1.96535937       0.55838523        1 
H       2.21858368       2.30793902       0.00604282        1 
H       3.88483047       0.23112283       0.24964988        1 
H       2.95838945       0.38843709       1.77045641        1 
H       1.62709429       1.14927069      -2.30169200        1 
H       0.65766262       1.42795239       1.72629351        1 
H       0.78372447      -0.79530230       2.05559428        1 
