29
Lattice="0.0 0.0 0.0 0.0 0.0 0.0 0.0 0.0 0.0" Properties=species:S:1:pos:R:3:Z:I:1 pbc="F F F"
C       1.00821802      -0.57011011      -0.80620237        6 
C       0.39171297       0.87501056      -0.94263861        6 
C       0.19915198      -1.76076152      -0.34034481        6 
C      -1.09547279       1.07162719      -0.71276173        6 
O      -0.98930318      -1.45064079       0.20325129        8 
O       0.59902087      -2.89602589      -0.45553971        8 
O      -1.42163263       1.33940372       0.56465691        8 
O      -1.90118546       1.09157729      -1.61443797        8 
C      -2.82097823       1.52382799       0.82950881        6 
C      -1.80479713      -2.55851944       0.62780560        6 
C       2.27231717      -0.32353728       0.11087265        6 
C       1.76066397       0.04668254       1.49225795        6 
C       1.21810749       1.26510093       1.40515666        6 
C       1.35852964       1.73195043      -0.03703713        6 
C       2.70430403       1.06517839      -0.40804181        6 
H      -3.20855889       2.38222770       0.27849018        1 
H      -1.29298384      -3.13435360       1.39982107        1 
H       0.67083856       1.79406098       2.17107191        1 
H      -2.89421937       1.69181411       1.90208761        1 
H      -3.38184154       0.63356638       0.54035398        1 
H      -2.71525757      -2.11242968       1.02149736        1 
H      -2.02944170      -3.20879877      -0.21851313        1 
H       1.26416430       2.80371757      -0.20727106        1 
H       2.99080845      -1.13873660       0.05318898        1 
H       3.54431948       1.47552602       0.15390140        1 
H       2.92862134       1.08618290      -1.47862394        1 
H       1.74282417      -0.62094613       2.34363403        1 
H       1.37387778      -0.87849227      -1.78844847        1 
H       0.53085928       1.18270782      -1.97963175        1 
