29
Lattice="0.0 0.0 0.0 0.0 0.0 0.0 0.0 0.0 0.0" Properties=species:S:1:pos:R:3:Z:I:1 pbc="F F F"
C      -0.58244944       0.86854363       0.67435272        6 
C       0.82036049       0.26513074       1.07218960        6 
C      -1.50968212      -0.04988049      -0.08618003        6 
C       0.98831905      -1.20354025       0.72986602        6 
O      -2.75888588       0.00607565       0.42646333        8 
O      -1.22116588      -0.71866239      -1.04955880        8 
O       1.70928930      -1.42750372      -0.37785365        8 
O       0.54473762      -2.08694404       1.42781064        8 
C       1.77891414      -2.79543350      -0.82004855        6 
C      -3.74946812      -0.80230027      -0.23617032        6 
C      -0.18086863       2.16884128      -0.12615240        6 
C       0.51435367       1.74888920      -1.40744071        6 
C       1.70420904       1.24216357      -1.07221014        6 
C       1.82334226       1.30363190       0.44203278        6 
C       1.03807912       2.60972150       0.71734639        6 
H       2.20433546      -3.43123875      -0.04258840        1 
H      -3.46078804      -1.85379383      -0.20799266        1 
H       2.41461332       0.75662938      -1.72416751        1 
H       2.41698990      -2.78234345      -1.70099329        1 
H       0.77913107      -3.14793566      -1.07701266        1 
H      -4.67159730      -0.64217901       0.31811461        1 
H      -3.86591840      -0.48881209      -1.27497943        1 
H       2.83027178       1.22669097       0.85011434        1 
H      -1.00639914       2.87303668      -0.22515016        1 
H       1.53173675       3.49021845       0.30392505        1 
H       0.80650055       2.77395094       1.77404831        1 
H       0.05827305       1.75314698      -2.38772624        1 
H      -1.10784166       1.17333093       1.57867623        1 
H       0.89870618       0.30186391       2.15994870        1 
