29
Lattice="0.0 0.0 0.0 0.0 0.0 0.0 0.0 0.0 0.0" Properties=species:S:1:pos:R:3:Z:I:1 pbc="F F F"
C      -0.51541852       0.66995779      -0.94684594        6 
C      -0.65987626      -0.90403749      -0.83474607        6 
C       0.81578816       1.33267689      -0.64990613        6 
C       0.34267022      -1.75030200      -0.05990099        6 
O       0.76229513       2.12724498       0.44363166        8 
O       1.80975786       1.19841260      -1.31776802        8 
O       1.60843720      -1.33730535      -0.19662771        8 
O       0.02863391      -2.72905442       0.57759950        8 
C       2.61747475      -2.12672250       0.45883184        6 
C       1.98335423       2.81064804       0.77835056        6 
C      -1.79100007       1.18939167      -0.20359145        6 
C      -1.72377739       0.73712615       1.24739130        6 
C      -1.91622628      -0.58585002       1.26860619        6 
C      -2.08584091      -1.04459953      -0.17598449        6 
C      -2.81986460       0.17781414      -0.76459526        6 
H       2.43939518      -2.15573836       1.53483226        1 
H       2.29647305       3.45737287      -0.04274190        1 
H      -1.84168880      -1.25321586       2.11522254        1 
H       3.55823112      -1.62916009       0.23477094        1 
H       2.61706957      -3.14525935       0.06756438        1 
H       1.75422620       3.39819730       1.66477409        1 
H       2.77615105       2.09081670       0.98746607        1 
H      -2.52859461      -2.02689695      -0.32128225        1 
H      -1.98258387       2.24787925      -0.37172600        1 
H      -3.81586255       0.30791483      -0.33902316        1 
H      -2.88309273       0.17537701      -1.85730000        1 
H      -1.46564966       1.37996966       2.07678410        1 
H      -0.64851099       0.89550579      -2.01020482        1 
H      -0.66434125      -1.32275189      -1.84610847        1 
