29
Lattice="0.0 0.0 0.0 0.0 0.0 0.0 0.0 0.0 0.0" Properties=species:S:1:pos:R:3:Z:I:1 pbc="F F F"
C      -0.65682624       0.13377485       0.93002335        6 
C       0.66368850       0.95182774       0.69478970        6 
C      -0.80188421      -1.17235738       0.17121683        6 
C       1.79251870       0.27120352      -0.05214266        6 
O      -2.08645554      -1.59401588       0.22289629        8 
O       0.07163308      -1.80200627      -0.37068636        8 
O       2.41615629      -0.61669895       0.74811652        8 
O       2.15505320       0.53849748      -1.17139833        8 
C       3.40305363      -1.44688472       0.11194067        6 
C      -2.37110801      -2.84317255      -0.43341098        6 
C      -1.76823722       1.17433511       0.49259071        6 
C      -1.64722826       1.27212530      -1.02192606        6 
C      -0.49969846       1.90402689      -1.29254395        6 
C       0.14699459       2.27048825       0.03445574        6 
C      -1.11096680       2.50645593       0.90482851        6 
H       2.93212548      -2.03454696      -0.67734797        1 
H      -1.79762378      -3.65333130       0.01986026        1 
H      -0.03404750       2.04119060      -2.25735297        1 
H       3.78559110      -2.09692895       0.89606142        1 
H       4.20497930      -0.83959169      -0.31025470        1 
H      -3.43782273      -3.00556229      -0.29477994        1 
H      -2.12635199      -2.78054803      -1.49479769        1 
H       0.89876661       3.05720245       0.00013722        1 
H      -2.75366591       0.94530367       0.89072578        1 
H      -1.69139725       3.37141243       0.57995711        1 
H      -0.89771461       2.58411866       1.97531278        1 
H      -2.31351816       0.78874258      -1.72421770        1 
H      -0.76513021      -0.11355140       1.98970935        1 
H       1.07106530       1.19176521       1.68048818        1 
