29
Lattice="0.0 0.0 0.0 0.0 0.0 0.0 0.0 0.0 0.0" Properties=species:S:1:pos:R:3:Z:I:1 pbc="F F F"
C      -0.64533728       0.58883794      -0.95115276        6 
C      -0.45004394      -0.94858592      -0.64465663        6 
C       0.17618616       1.65643963      -0.23158761        6 
C       0.81337218      -1.48265482      -0.00514892        6 
O       1.45041380       1.30753349       0.00522549        8 
O      -0.27889148       2.72777531       0.09538212        8 
O       1.88775171      -1.25048722      -0.78485088        8 
O       0.84415517      -2.20684695       0.96214748        8 
C       3.13916229      -1.76887932      -0.30933244        6 
C       2.25677361       2.28504587       0.68941234        6 
C      -2.16614298       0.78178909      -0.54152520        6 
C      -2.18191941       0.70568567       0.98389879        6 
C      -1.92996485      -0.56329814       1.32389655        6 
C      -1.78585863      -1.36291029       0.03978647        6 
C      -2.76410949      -0.59848514      -0.88408775        6 
H       3.37663018      -1.35155510       0.67087464        1 
H       1.82898118       2.51344320       1.66647772        1 
H      -1.76091654      -0.96349395       2.31382591        1 
H       3.87957144      -1.46043964      -1.04450579        1 
H       3.10280161      -2.85708688      -0.23414473        1 
H       3.23667731       1.82491847       0.79620284        1 
H       2.32393103       3.20229882       0.10294935        1 
H      -1.90389979      -2.44136685       0.12546665        1 
H      -2.62264073       1.66315021      -0.98502450        1 
H      -3.80345023      -0.68946839      -0.56545532        1 
H      -2.67674264      -0.87459769      -1.93964511        1 
H      -2.25305969       1.56456869       1.63542748        1 
H      -0.50451133       0.76631778      -2.02105525        1 
H      -0.42793532      -1.43517529      -1.62739318        1 
