29
Lattice="0.0 0.0 0.0 0.0 0.0 0.0 0.0 0.0 0.0" Properties=species:S:1:pos:R:3:Z:I:1 pbc="F F F"
C      -0.70182080       0.53265710       0.86549467        6 
C       0.86504081       0.64567340       0.93174309        6 
C      -1.29619429      -0.76087978       0.35088203        6 
C       1.69078774      -0.58365421       0.59462104        6 
O      -2.62426187      -0.60623808       0.14398574        8 
O      -0.71925482      -1.80269713       0.16408675        8 
O       1.79106995      -0.81637062      -0.72601328        8 
O       2.26071232      -1.24211097       1.43231044        8 
C       2.44002813      -2.04364950      -1.09842698        6 
C      -3.33460842      -1.77053489      -0.31692282        6 
C      -1.11844734       1.81063115       0.04087022        6 
C      -0.64281451       1.58021236      -1.38319731        6 
C       0.69241116       1.64209427      -1.37414414        6 
C       1.13373911       1.92865300       0.05272468        6 
C      -0.04608902       2.80883250       0.53051623        6 
H       3.46089937      -2.07426002      -0.71493985        1 
H      -3.26843342      -2.57490679       0.41747734        1 
H       1.36323201       1.41902318      -2.19051949        1 
H       2.43671104      -2.05515258      -2.18655122        1 
H       1.87531579      -2.88970648      -0.70412507        1 
H      -4.36655835      -1.44919962      -0.44009854        1 
H      -2.92445432      -2.11755610      -1.26661273        1 
H       2.14057105       2.32533699       0.17632824        1 
H      -2.16388274       2.08070422       0.17000286        1 
H      -0.09792109       3.76351536       0.00468820        1 
H      -0.05966841       2.97837594       1.61114563        1 
H      -1.28143470       1.29486784      -2.20873291        1 
H      -1.09834987       0.63660771       1.88112034        1 
H       1.14198790       0.87112447       1.96157013        1 
