29
Lattice="0.0 0.0 0.0 0.0 0.0 0.0 0.0 0.0 0.0" Properties=species:S:1:pos:R:3:Z:I:1 pbc="F F F"
C      -0.71617761       0.43629454      -1.04486616        6 
C      -0.38272111      -1.05965569      -0.63768330        6 
C       0.30528066       1.50043699      -0.69577543        6 
C       0.88405328      -1.26786556       0.16854398        6 
O       0.41665153       1.71623852       0.62491055        8 
O       0.95294907       2.09961628      -1.52389552        8 
O       1.91120462      -1.56654525      -0.66291302        8 
O       1.01489218      -1.16201950       1.36187464        8 
C       3.20207577      -1.71889794      -0.04558177        6 
C       1.40817854       2.67086344       1.03984755        6 
C      -2.17293190       0.62411646      -0.46405897        6 
C      -2.11451640       0.54852354       1.05130770        6 
C      -1.83302634      -0.71487434       1.38259317        6 
C      -1.70395034      -1.50875541       0.09296820        6 
C      -2.74450469      -0.77725600      -0.78622025        6 
H       3.48646604      -0.80120965       0.47178943        1 
H       1.17565658       3.66130668       0.64522049        1 
H      -1.60405838      -1.09844419       2.36558931        1 
H       3.89065953      -1.92683812      -0.86141677        1 
H       3.19021803      -2.54405203       0.66834818        1 
H       1.37111170       2.66848842       2.12669513        1 
H       2.39608924       2.36785279       0.68953652        1 
H      -1.79258778      -2.59157271       0.17822740        1 
H      -2.68501338       1.48496830      -0.89310546        1 
H      -3.76400190      -0.90623060      -0.42054902        1 
H      -2.69350616      -1.04300271      -1.84679279        1 
H      -2.16371119       1.40159769       1.71231001        1 
H      -0.77234713       0.47746169      -2.13272533        1 
H      -0.26293967      -1.63098515      -1.55880172        1 
