29
Lattice="0.0 0.0 0.0 0.0 0.0 0.0 0.0 0.0 0.0" Properties=species:S:1:pos:R:3:Z:I:1 pbc="F F F"
C      -0.77537734       0.55652736      -0.90968045        6 
C      -0.36122486      -0.95211543      -0.69291930        6 
C       0.03064326       1.67292655      -0.27312224        6 
C       0.90654861      -1.23351888       0.08758251        6 
O       1.33662901       1.37223558      -0.15180158        8 
O      -0.43025951       2.75171511       0.01374385        8 
O       1.93146125      -1.48852471      -0.75576118        8 
O       1.00882455      -1.29053067       1.28856339        8 
C       3.20644004      -1.72536946      -0.13776758        6 
C       2.17377059       2.38769882       0.43196562        6 
C      -2.27678451       0.57494445      -0.44022907        6 
C      -2.24560832       0.39156986       1.06900817        6 
C      -1.86562862      -0.86736839       1.31211798        6 
C      -1.65632750      -1.55262769      -0.03212821        6 
C      -2.72839111      -0.83306490      -0.88359688        6 
H       3.50554068      -0.86009841       0.45622504        1 
H       1.85602287       2.59427581       1.45469419        1 
H      -1.62974386      -1.31043619       2.26826685        1 
H       3.90297866      -1.88554099      -0.95807535        1 
H       3.16471048      -2.60448273       0.50733687        1 
H       3.17980033       1.97447027       0.42091018        1 
H       2.12646532       3.30536772      -0.15548094        1 
H      -1.66437517      -2.64218935      -0.02576560        1 
H      -2.83055053       1.43213953      -0.81585562        1 
H      -3.74486781      -1.06517259      -0.56279578        1 
H      -2.62962817      -1.01261655      -1.95884923        1 
H      -2.38439645       1.18925972       1.78517207        1 
H      -0.72550862       0.76804456      -1.98405001        1 
H      -0.22488833      -1.40385380      -1.67635818        1 
