29
Lattice="0.0 0.0 0.0 0.0 0.0 0.0 0.0 0.0 0.0" Properties=species:S:1:pos:R:3:Z:I:1 pbc="F F F"
C       0.58035503       0.96692787       0.75726952        6 
C       0.70143225      -0.58771724       0.99313339        6 
C      -0.65831247       1.46213474       0.04249654        6 
C      -0.45746188      -1.46549425       0.57797922        6 
O      -1.76874553       1.11395502       0.73032327        8 
O      -0.68200509       2.11567192      -0.97031583        8 
O      -0.80476346      -1.29955282      -0.71464786        8 
O      -1.01123351      -2.24512681       1.31631698        8 
C      -1.91607633      -2.08378023      -1.18047502        6 
C      -3.02580251       1.48247533       0.13671041        6 
C       1.92144658       1.31877168       0.02608871        6 
C       1.86383444       0.68505634      -1.35391084        6 
C       1.95595790      -0.63837972      -1.19170243        6 
C       2.08373766      -0.91434919       0.29650993        6 
C       2.87984143       0.33670440       0.73797834        6 
H      -1.69451562      -3.14905640      -1.09990736        1 
H      -3.12384911       1.02936607      -0.85142413        1 
H       1.83747021      -1.39849649      -1.95143676        1 
H      -2.05486161      -1.79876564      -2.22123504        1 
H      -2.81061299      -1.86057399      -0.59645972        1 
H      -3.78824131       1.09970811       0.81162962        1 
H      -3.10357345       2.56665934       0.04319973        1 
H       2.47757318      -1.88911772       0.58221944        1 
H       2.16387691       2.37937572       0.05924273        1 
H       3.88687143       0.35812659       0.31900171        1 
H       2.92714536       0.46767721       1.82364028        1 
H       1.64979220       1.22217784      -2.26615447        1 
H       0.55885843       1.44545301       1.74112673        1 
H       0.80909346      -0.77514904       2.06091772        1 
