29
Lattice="0.0 0.0 0.0 0.0 0.0 0.0 0.0 0.0 0.0" Properties=species:S:1:pos:R:3:Z:I:1 pbc="F F F"
C       0.90908416      -0.73103436      -0.81540500        6 
C       0.56631493       0.80463722      -0.97840560        6 
C      -0.17871495      -1.71759723      -0.45448381        6 
C      -0.87450846       1.22980239      -0.76580210        6 
O      -0.93527141      -1.32956520       0.58955522        8 
O      -0.34736474      -2.76163198      -1.04018154        8 
O      -1.18370040       1.52697872       0.50739418        8 
O      -1.65693222       1.36526168      -1.67917503        8 
C      -2.55144367       1.89123714       0.75375932        6 
C      -1.99467654      -2.22499060       0.97246969        6 
C       2.14214873      -0.70658597       0.17231716        6 
C       1.67605299      -0.19583257       1.52327893        6 
C       1.39343836       1.10275810       1.38702599        6 
C       1.65742839       1.48393328      -0.06130228        6 
C       2.85666507       0.55471394      -0.36793089        6 
H      -2.81335578       2.79990041       0.20942796        1 
H      -1.58910095      -3.19127591       1.27587576        1 
H       0.94127791       1.75368749       2.12025816        1 
H      -2.61911548       2.05306680       1.82751038        1 
H      -3.21856651       1.08512989       0.44375088        1 
H      -2.49394881      -1.73943040       1.80835466        1 
H      -2.68638876      -2.37221171       0.14165453        1 
H       1.78182907       2.54670048      -0.26613776        1 
H       2.69822723      -1.64314794       0.16506507        1 
H       3.74353607       0.81149072       0.21283828        1 
H       3.11376011       0.49497695      -1.42982784        1 
H       1.49709856      -0.81627386       2.39069427        1 
H       1.27085626      -1.09618783      -1.77698652        1 
H       0.76423851       1.06962604      -2.01734010        1 
