29
Lattice="0.0 0.0 0.0 0.0 0.0 0.0 0.0 0.0 0.0" Properties=species:S:1:pos:R:3:Z:I:1 pbc="F F F"
C      -0.86215104       0.70470464      -0.89879531        6 
C      -0.44753177      -0.81801631      -0.94292905        6 
C       0.01065374       1.74159605      -0.20629451        6 
C       1.00418865      -1.18433127      -0.70956337        6 
O       1.29375266       1.37739751      -0.07383415        8 
O      -0.42111975       2.80080041       0.18545530        8 
O       1.21350246      -1.72916554       0.50760238        8 
O       1.87604473      -1.03656848      -1.52988402        8 
C       2.57476443      -2.07755584       0.81224840        6 
C       2.16671431       2.32663907       0.56524234        6 
C      -2.25380943       0.63457940      -0.14817721        6 
C      -1.90692298       0.32602977       1.30391820        6 
C      -1.46611683      -0.93581700       1.34805766        6 
C      -1.54506588      -1.50348308      -0.06193675        6 
C      -2.78151255      -0.74328294      -0.59991054        6 
H       2.94848125      -2.82164398       0.10697644        1 
H       1.84430427       2.50663568       1.59194138        1 
H      -1.03345042      -1.45370898       2.19188320        1 
H       2.55284592      -2.48275532       1.82167692        1 
H       3.21037237      -1.19197061       0.76581030        1 
H       3.15318851       1.86933861       0.54299185        1 
H       2.16736203       3.26997348       0.01808680        1 
H      -1.54613998      -2.58932177      -0.14646166        1 
H      -2.87930739       1.50599061      -0.32413652        1 
H      -3.70408309      -1.02012942      -0.08790333        1 
H      -2.91655325      -0.83646285      -1.68178981        1 
H      -1.90263815       1.05628784       2.10122242        1 
H      -0.99918969       1.07100593      -1.92017863        1 
H      -0.61178007      -1.13932011      -1.97550465        1 
