29
Lattice="0.0 0.0 0.0 0.0 0.0 0.0 0.0 0.0 0.0" Properties=species:S:1:pos:R:3:Z:I:1 pbc="F F F"
C       0.33846832       0.81469887       0.73789929        6 
C       0.71397103      -0.71524700       0.83640282        6 
C      -0.87144923       1.17317234      -0.09183627        6 
C      -0.16057603      -1.67196246       0.04941308        6 
O      -1.65586418       2.05470887       0.57496922        8 
O      -1.12067168       0.78403018      -1.20566659        8 
O      -1.27487704      -1.96049490       0.76685134        8 
O       0.03401860      -2.09153749      -1.06097972        8 
C      -2.26783917      -2.75390764       0.09011436        6 
C      -2.82490820       2.51142267      -0.13016530        6 
C       1.68123406       1.46427240       0.21695011        6 
C       1.93867333       0.95609977      -1.18826226        6 
C       2.25781758      -0.33799222      -1.09566848        6 
C       2.22035756      -0.71756492       0.37652193        6 
C       2.69299344       0.60842533       1.01349737        6 
H      -2.57525821      -2.26139277      -0.83341239        1 
H      -3.48511992       1.67221585      -0.35538305        1 
H       2.38751702      -1.03875858      -1.90629573        1 
H      -3.10138686      -2.83022615       0.78517626        1 
H      -1.87278666      -3.74396609      -0.14362678        1 
H      -3.31379535       3.21303372       0.54209777        1 
H      -2.54272876       3.00346421      -1.06220815        1 
H       2.75000722      -1.62790694       0.65477226        1 
H       1.70769175       2.54359937       0.36299772        1 
H       3.72708601       0.84769477       0.76162979        1 
H       2.55222053       0.65607674       2.09782945        1 
H       1.75302160       1.51792021      -2.09311639        1 
H       0.14987477       1.18962082       1.74378749        1 
H       0.64274151      -1.00955029       1.88470004        1 
