29
Lattice="0.0 0.0 0.0 0.0 0.0 0.0 0.0 0.0 0.0" Properties=species:S:1:pos:R:3:Z:I:1 pbc="F F F"
C       0.56558559       0.97722629       0.74996426        6 
C       0.70685799      -0.57280239       0.99574977        6 
C      -0.68592203       1.45452800       0.04632474        6 
C      -0.42415871      -1.48028060       0.56884985        6 
O      -1.78435235       1.10414971       0.75249713        8 
O      -0.72751357       2.10061122      -0.97063410        8 
O      -0.81556248      -1.26855997      -0.70396712        8 
O      -0.91364292      -2.32629938       1.27927706        8 
C      -1.89295400      -2.09031578      -1.18440221        6 
C      -3.05170431       1.45410447       0.17007940        6 
C       1.89667345       1.34324104       0.00864433        6 
C       1.84526859       0.69275185      -1.36356789        6 
C       1.96175749      -0.62698313      -1.18686106        6 
C       2.09771046      -0.88364045       0.30394302        6 
C       2.87298725       0.38535097       0.72943904        6 
H      -1.61364283      -3.14455089      -1.15480850        1 
H      -3.15761344       0.98747430      -0.81091636        1 
H       1.85402748      -1.39747326      -1.93790402        1 
H      -2.06705924      -1.76829871      -2.20890349        1 
H      -2.78651837      -1.94092272      -0.57574373        1 
H      -3.80253837       1.07321591       0.85897578        1 
H      -3.14055783       2.53627690       0.06390984        1 
H       2.50649913      -1.84873319       0.60077750        1 
H       2.12137806       2.40803502       0.02851019        1 
H       3.87872642       0.41865563       0.30806560        1 
H       2.92027081       0.52948750       1.81340314        1 
H       1.61891526       1.21581110      -2.28105772        1 
H       0.54754703       1.46120702       1.73133025        1 
H       0.81244330      -0.75725972       2.06418753        1 
