29
Lattice="0.0 0.0 0.0 0.0 0.0 0.0 0.0 0.0 0.0" Properties=species:S:1:pos:R:3:Z:I:1 pbc="F F F"
C      -0.60286323       0.68727575      -0.97196403        6 
C      -0.74062441      -0.86838543      -0.76576415        6 
C       0.69793432       1.39391521      -0.63936146        6 
C       0.38790904      -1.72390959      -0.22693128        6 
O       0.93315520       1.50805297       0.68154591        8 
O       1.41377892       1.88715314      -1.47962255        8 
O       1.57489534      -1.09701838      -0.17580384        8 
O       0.24815272      -2.89732179       0.02813710        8 
C       2.70248188      -1.89499422       0.22947578        6 
C       2.16774257       2.14499250       1.04405905        6 
C      -1.86741355       1.22177691      -0.18130086        6 
C      -1.68996338       0.89090251       1.29423109        6 
C      -1.81516469      -0.43304593       1.43186824        6 
C      -2.07698269      -1.01100631       0.05201180        6 
C      -2.89458239       0.13615499      -0.58133114        6 
H       2.55756851      -2.26808125       1.24422144        1 
H       2.20175756       3.16739326       0.66443273        1 
H      -1.64739960      -1.02169320       2.32396940        1 
H       3.55960071      -1.22710047       0.18270007        1 
H       2.83499807      -2.73849852      -0.44926368        1 
H       2.19072074       2.13737270       2.13186557        1 
H       3.01298319       1.58631175       0.63808201        1 
H      -2.48989512      -2.01637843       0.01211272        1 
H      -2.11012013       2.25656240      -0.42017469        1 
H      -3.86137361       0.27600550      -0.09568171        1 
H      -3.03340824       0.03717910      -1.66213808        1 
H      -1.40135548       1.60339885       2.05290161        1 
H      -0.74616857       0.89848632      -2.03156939        1 
H      -0.91639781      -1.30755760      -1.75446151        1 
