29
Lattice="0.0 0.0 0.0 0.0 0.0 0.0 0.0 0.0 0.0" Properties=species:S:1:pos:R:3:Z:I:1 pbc="F F F"
C      -0.41737833      -0.93535289       0.69817900        6 
C      -0.72620745       0.59967332       0.92306752        6 
C       0.83265528      -1.28164142      -0.08190121        6 
C       0.12950891       1.63557768       0.21552464        6 
O       1.85964398      -1.53291461       0.75865820        8 
O       0.91576557      -1.39487077      -1.28091990        8 
O       1.44222144       1.33475942       0.26745949        8 
O      -0.29641300       2.64396047      -0.29284032        8 
C       2.32920023       2.25304309      -0.39863171        6 
C       3.12377058      -1.81379366       0.13753275        6 
C      -1.75264081      -1.45306807       0.05965345        6 
C      -1.95278662      -0.74998384      -1.27407306        6 
C      -2.25827631       0.52643819      -1.01822980        6 
C      -2.23725645       0.70538822       0.49188110        6 
C      -2.76235906      -0.67690072       0.93772029        6 
H       2.07772022       2.31802255      -1.45795155        1 
H       3.43011037      -0.97659415      -0.49198180        1 
H      -2.36684497       1.33302655      -1.72873194        1 
H       3.32631529       1.83902915      -0.26606245        1 
H       2.26157084       3.24403089       0.05201115        1 
H       3.82637650      -1.95298241       0.95656152        1 
H       3.06205932      -2.71654227      -0.47231113        1 
H      -2.73428451       1.59089411       0.88177746        1 
H      -1.82563495      -2.54023776       0.04863582        1 
H      -3.79625792      -0.84538819       0.63368657        1 
H      -2.65454417      -0.87121102       2.00943502        1 
H      -1.76315030      -1.20043299      -2.23734421        1 
H      -0.29664396      -1.39331009       1.68116289        1 
H      -0.62275915       0.81767075       1.99110169        1 
