29
Lattice="0.0 0.0 0.0 0.0 0.0 0.0 0.0 0.0 0.0" Properties=species:S:1:pos:R:3:Z:I:1 pbc="F F F"
C      -0.78614727       0.40471671      -1.01303208        6 
C      -0.21193660      -1.02849483      -0.66938168        6 
C      -0.01711642       1.66198891      -0.66355968        6 
C       1.09027832      -1.13824794       0.10094855        6 
O       0.39161992       1.70213377       0.61200365        8 
O       0.16505956       2.56296788      -1.45185042        8 
O       2.08983800      -1.51183318      -0.73845296        8 
O       1.26747918      -0.92801524       1.27324063        8 
C       3.39540338      -1.63360134      -0.14573956        6 
C       1.10608194       2.87933065       1.02450146        6 
C      -2.23776496       0.34776590      -0.38186056        6 
C      -2.09883487       0.25342971       1.12637218        6 
C      -1.61400968      -0.95881485       1.41190379        6 
C      -1.42412995      -1.69623439       0.09592798        6 
C      -2.59993958      -1.11581476      -0.72033416        6 
H       3.71335233      -0.67802185       0.27448133        1 
H       0.47018678       3.76216245       0.93795169        1 
H      -1.28667829      -1.32268607       2.37442675        1 
H       4.05557403      -1.93427102      -0.95632445        1 
H       3.38864672      -2.38639090       0.64433499        1 
H       1.37841423       2.69890719       2.06178130        1 
H       1.99733713       3.01985353       0.41086228        1 
H      -1.34032830      -2.78120249       0.15436610        1 
H      -2.88871982       1.13051135      -0.76967557        1 
H      -3.57133831      -1.40834354      -0.31937327        1 
H      -2.55449872      -1.34651737      -1.78898807        1 
H      -2.24811115       1.07522501       1.81246489        1 
H      -0.89698508       0.46423741      -2.09616745        1 
H      -0.05668272      -1.55100249      -1.61332383        1 
