29
Lattice="0.0 0.0 0.0 0.0 0.0 0.0 0.0 0.0 0.0" Properties=species:S:1:pos:R:3:Z:I:1 pbc="F F F"
C       0.52498823       1.00486583       0.72971421        6 
C       0.71508756      -0.54119061       1.00601696        6 
C      -0.71227095       1.39448303      -0.05359557        6 
C      -0.41467986      -1.47060630       0.62487273        6 
O      -1.80431141       1.30464365       0.74180447        8 
O      -0.76878588       1.70718880      -1.21577955        8 
O      -0.72700357      -1.40592756      -0.68369684        8 
O      -0.98962306      -2.18937429       1.40839438        8 
C      -1.81478207      -2.23674415      -1.12413978        6 
C      -3.07178795       1.54430016       0.10455032        6 
C       1.87204611       1.38671720       0.01578510        6 
C       1.87936741       0.71358787      -1.34804534        6 
C       2.02221804      -0.59969153      -1.14779341        6 
C       2.12111289      -0.82923647       0.34831964        6 
C       2.85264673       0.46517275       0.77700213        6 
H      -1.58138210      -3.29041321      -0.96337538        1 
H      -3.22741855       0.83121612      -0.70692730        1 
H       1.95353777      -1.38308047      -1.88964457        1 
H      -1.92738780      -2.02522407      -2.18528007        1 
H      -2.72829748      -1.98705875      -0.58178602        1 
H      -3.81883989       1.40745186       0.88323909        1 
H      -3.11454510       2.55797344      -0.29659143        1 
H       2.54698558      -1.77824032       0.67260553        1 
H       2.07334640       2.45703744       0.02547204        1 
H       3.86796511       0.51975140       0.38186501        1 
H       2.86613138       0.62577788       1.85957850        1 
H       1.66885423       1.21482684      -2.28055719        1 
H       0.45257615       1.50636209       1.69703269        1 
H       0.81602737      -0.68201317       2.08201117        1 
