29
Lattice="0.0 0.0 0.0 0.0 0.0 0.0 0.0 0.0 0.0" Properties=species:S:1:pos:R:3:Z:I:1 pbc="F F F"
C       0.87357260      -0.71187415      -0.83691952        6 
C       0.57538644       0.83744674      -0.92910238        6 
C      -0.19717045      -1.73868732      -0.53617351        6 
C      -0.81792923       1.40112568      -0.71746142        6 
O      -1.00811382      -1.41340219       0.48244169        8 
O      -0.27590529      -2.78798442      -1.13465030        8 
O      -1.26351600       1.33206006       0.54653448        8 
O      -1.42896543       1.96798380      -1.59652270        8 
C      -2.56715409       1.88575940       0.78881973        6 
C      -2.02026594      -2.37866006       0.82097937        6 
C       2.09611932      -0.76814023       0.17067315        6 
C       1.61234137      -0.31693595       1.53548607        6 
C       1.36382691       0.99405114       1.46109967        6 
C       1.67241685       1.44186819       0.04242175        6 
C       2.85082059       0.49785677      -0.29066075        6 
H      -2.57538447       2.95764729       0.58381605        1 
H      -1.56416987      -3.31887683       1.13466968        1 
H       0.90656474       1.61522016       2.21726323        1 
H      -2.77030487       1.69445262       1.84046400        1 
H      -3.31243651       1.39803108       0.15841358        1 
H      -2.58097098      -1.93157464       1.63900240        1 
H      -2.67040409      -2.56606611      -0.03507369        1 
H       1.82482012       2.50990644      -0.10915589        1 
H       2.62673403      -1.71821338       0.12466049        1 
H       3.73293353       0.70226304       0.31800509        1 
H       3.12602615       0.48658820      -1.34928549        1 
H       1.39562110      -0.97692197       2.36418796        1 
H       1.24866636      -1.02701536      -1.81118974        1 
H       0.81600263       1.14709279      -1.94594455        1 
