29
Lattice="0.0 0.0 0.0 0.0 0.0 0.0 0.0 0.0 0.0" Properties=species:S:1:pos:R:3:Z:I:1 pbc="F F F"
C      -0.62920337      -0.03386957      -0.96411693        6 
C       0.53981874      -1.04312728      -0.60967050        6 
C      -0.61884029       1.34250299      -0.30256816        6 
C       1.76796889      -0.54550394       0.12393276        6 
O      -1.86928645       1.71618827       0.05979360        8 
O       0.32545513       2.08551478      -0.20718943        8 
O       2.44649806       0.33519917      -0.62822919        8 
O       2.18236058      -0.99750260       1.16623287        8 
C       3.60595463       0.93280627      -0.02651757        6 
C      -1.99565199       3.03653362       0.61627805        6 
C      -1.89716767      -0.89285744      -0.56226044        6 
C      -1.88546476      -0.96621180       0.96186782        6 
C      -0.86418811      -1.75080144       1.32019687        6 
C      -0.19954668      -2.24544702       0.04547926        6 
C      -1.41826648      -2.31936348      -0.90384575        6 
H       3.31837879       1.48113639       0.87166440        1 
H      -1.65879070       3.78782413      -0.09967951        1 
H      -0.49020185      -1.93906562       2.31645271        1 
H       4.00014003       1.61626237      -0.77508297        1 
H       4.34390867       0.17107483       0.23035081        1 
H      -3.05502627       3.15877807       0.83192225        1 
H      -1.40514287       3.12189570       1.52981436        1 
H       0.42595570      -3.13106135       0.13950119        1 
H      -2.81922630      -0.54622272      -1.02315288        1 
H      -2.14071836      -3.08249917      -0.60957332        1 
H      -1.14745658      -2.45615428      -1.95556879        1 
H      -2.52308579      -0.37836900       1.60620237        1 
H      -0.61931479       0.16606433      -2.03917592        1 
H       0.94254663      -1.38255464      -1.57027860        1 
