29
Lattice="0.0 0.0 0.0 0.0 0.0 0.0 0.0 0.0 0.0" Properties=species:S:1:pos:R:3:Z:I:1 pbc="F F F"
C      -0.86291608       0.36892625       0.99328570        6 
C       0.64366428       0.64674440       0.68034220        6 
C      -1.62109708      -0.86309775       0.53132935        6 
C       1.62608606      -0.47222630       0.39681863        6 
O      -1.08717580      -1.48942999      -0.52078348        8 
O      -2.70703699      -1.14222777       0.99212838        8 
O       2.84889202       0.07506016       0.16000696        8 
O       1.43330822      -1.65926962       0.38131163        8 
C       3.91322977      -0.85596730      -0.10259812        6 
C      -1.82858755      -2.60169428      -1.04760396        6 
C      -1.55170494       1.61224170       0.24767438        6 
C      -1.41321739       1.33559944      -1.24262324        6 
C      -0.12184440       1.47293010      -1.56037843        6 
C       0.61919534       1.87612512      -0.30037866        6 
C      -0.47689779       2.70446068       0.41333019        6 
H       4.06183353      -1.51943402       0.75097110        1 
H      -2.79027072      -2.26819163      -1.44292375        1 
H       0.34769136       1.23875007      -2.50660386        1 
H       4.79786564      -0.24538725      -0.27103342        1 
H       3.68785507      -1.45645987      -0.98552854        1 
H      -1.20679336      -3.01109905      -1.84049900        1 
H      -1.99924515      -3.34756496      -0.27050659        1 
H       1.59749139       2.33203023      -0.42990673        1 
H      -2.55534262       1.81087583       0.61690512        1 
H      -0.73238307       3.61633043      -0.12849144        1 
H      -0.23977370       2.94385301       1.45370352        1 
H      -2.20550923       0.95866358      -1.87571833        1 
H      -1.05111570       0.44834242       2.06346279        1 
H       1.05508905       1.05735837       1.61179562        1 
