29
Lattice="0.0 0.0 0.0 0.0 0.0 0.0 0.0 0.0 0.0" Properties=species:S:1:pos:R:3:Z:I:1 pbc="F F F"
C      -0.87825331       0.67227049      -0.89963971        6 
C      -0.36376569      -0.82070767      -0.91912679        6 
C      -0.11073953       1.76950156      -0.17259234        6 
C       1.10532024      -1.11011677      -0.68623696        6 
O       1.20369799       1.53891595      -0.06833046        8 
O      -0.64729026       2.75866765       0.27081505        8 
O       1.31315996      -1.81722199       0.44695674        8 
O       1.99237011      -0.77807938      -1.43174505        8 
C       2.68311824      -2.14492636       0.73887493        6 
C       1.98536710       2.55167424       0.59039142        6 
C      -2.28853256       0.50243708      -0.19245671        6 
C      -1.96262114       0.23274170       1.27319686        6 
C      -1.42910995      -0.99184829       1.34316663        6 
C      -1.42847667      -1.57639916      -0.06125129        6 
C      -2.70164006      -0.91356719      -0.64179631        6 
H       3.10868951      -2.75744320      -0.05768569        1 
H       1.65072822       2.68044759       1.62079781        1 
H      -0.98197975      -1.46867232       2.20397163        1 
H       2.65636660      -2.69828246       1.67517771        1 
H       3.27631777      -1.23543345       0.84523745        1 
H       3.00958448       2.18714707       0.55752131        1 
H       1.89839177       3.50221977       0.06250352        1 
H      -1.34699390      -2.65966653      -0.13415709        1 
H      -2.96952196       1.32508182      -0.39429873        1 
H      -3.61571439      -1.25165792      -0.15156418        1 
H      -2.79994199      -1.02839168      -1.72541041        1 
H      -2.03780930       0.96782022       2.06215927        1 
H      -1.00328107       1.02622864      -1.92673013        1 
H      -0.49888917      -1.15329572      -1.95405365        1 
