29
Lattice="0.0 0.0 0.0 0.0 0.0 0.0 0.0 0.0 0.0" Properties=species:S:1:pos:R:3:Z:I:1 pbc="F F F"
C      -0.68519403       0.34365552      -1.01117627        6 
C      -0.25407522      -1.07558712      -0.51071137        6 
C      -0.11714503       1.62049996      -0.39308155        6 
C       1.14274142      -1.40989963      -0.03619697        6 
O       0.98683482       1.45268708       0.34818389        8 
O      -0.69262275       2.68235677      -0.47547128        8 
O       2.08140508      -0.72950789      -0.72160636        8 
O       1.40237886      -2.35400847       0.67353280        8 
C       3.44657004      -1.08962958      -0.45537119        6 
C       1.46130795       2.61771167       1.04702705        6 
C      -2.23010681       0.33167216      -0.57951504        6 
C      -2.20505620       0.51497464       0.93729900        6 
C      -1.71825212      -0.61231249       1.46830451        6 
C      -1.46327159      -1.58532460       0.32923035        6 
C      -2.58851486      -1.16684767      -0.65285226        6 
H       3.68321738      -0.93451585       0.59871038        1 
H       0.70473331       2.97238909       1.74882483        1 
H      -1.46780921      -0.80011549       2.50379319        1 
H       4.04641530      -0.43163027      -1.08057370        1 
H       3.62769246      -2.13494130      -0.71132920        1 
H       2.35359133       2.29141489       1.57672943        1 
H       1.70028462       3.41557077       0.34282241        1 
H      -1.38090658      -2.63656011       0.59548196        1 
H      -2.83463665       1.03800465      -1.14211990        1 
H      -3.58722869      -1.36698817      -0.26241555        1 
H      -2.48672887      -1.60658192      -1.64922980        1 
H      -2.42259718       1.44518465       1.44341553        1 
H      -0.58223807       0.42859382      -2.09424302        1 
H      -0.27188710      -1.69338889      -1.42096398        1 
