29
Lattice="0.0 0.0 0.0 0.0 0.0 0.0 0.0 0.0 0.0" Properties=species:S:1:pos:R:3:Z:I:1 pbc="F F F"
C      -0.65998760      -0.07077690      -0.97964619        6 
C       0.52877406      -1.05642112      -0.63338878        6 
C      -0.58853795       1.31360061      -0.35545705        6 
C       1.67454603      -0.47310644       0.16831414        6 
O      -1.81061780       1.76222446      -0.00002154        8 
O       0.40891650       1.98736410      -0.26494757        8 
O       2.60226419       0.05107615      -0.65455596        8 
O       1.78907123      -0.51701100       1.36956079        8 
C       3.66718525       0.77996553      -0.02024079        6 
C      -1.86020843       3.09139710       0.55135477        6 
C      -1.92120666      -0.91654608      -0.55346023        6 
C      -1.89449446      -0.98228861       0.96788875        6 
C      -0.86755248      -1.76255618       1.31821164        6 
C      -0.21092447      -2.25969500       0.03830731        6 
C      -1.43946735      -2.34247173      -0.89743133        6 
H       3.25707343       1.64542277       0.50259373        1 
H      -1.48645620       3.81893417      -0.17066051        1 
H      -0.48303655      -1.94081706       2.31136948        1 
H       4.32308034       1.09794648      -0.82769899        1 
H       4.20366466       0.14407258       0.68546961        1 
H      -2.90976492       3.27303445       0.77222374        1 
H      -1.25987156       3.14490352       1.46052893        1 
H       0.41423851      -3.14700478       0.12955519        1 
H      -2.84685806      -0.57340333      -1.01047019        1 
H      -2.15404471      -3.10901645      -0.59291829        1 
H      -1.17931743      -2.47946603      -1.95191861        1 
H      -2.52375236      -0.39020579       1.61691738        1 
H      -0.66787074       0.10730441      -2.05968016        1 
H       0.96100498      -1.39160704      -1.57815199        1 
