29
Lattice="0.0 0.0 0.0 0.0 0.0 0.0 0.0 0.0 0.0" Properties=species:S:1:pos:R:3:Z:I:1 pbc="F F F"
C      -0.74010764       0.36281739       0.94609643        6 
C       0.80597382       0.58010402       0.86341805        6 
C      -1.31121406      -0.79365730       0.14092629        6 
C       1.66714141      -0.64035748       0.61365718        6 
O      -2.66603889      -0.71459741       0.14544399        8 
O      -0.71174136      -1.68558428      -0.39948899        8 
O       2.54222830      -0.44742281      -0.39618461        8 
O       1.59205400      -1.66065767       1.24968064        8 
C       3.36801881      -1.58020479      -0.72652617        6 
C      -3.35962878      -1.75395820      -0.56731874        6 
C      -1.26888496       1.72255964       0.29690298        6 
C      -0.99581566       1.56446268      -1.19531355        6 
C       0.32966693       1.61783434      -1.36636325        6 
C       0.96081690       1.86727649      -0.00751747        6 
C      -0.14876630       2.71597980       0.66357454        6 
H       3.99290773      -1.85974909       0.12309884        1 
H      -3.13350618      -2.73053212      -0.13647030        1 
H       0.88336131       1.41960613      -2.27365288        1 
H       3.98212743      -1.25741537      -1.56458963        1 
H       2.74286578      -2.42850082      -1.00842159        1 
H      -4.41738610      -1.52302508      -0.46018986        1 
H      -3.07189262      -1.75341623      -1.62019645        1 
H       1.97173591       2.26918793      -0.01080401        1 
H      -2.28873082       1.96829975       0.58198510        1 
H      -0.28871523       3.68568551       0.18318100        1 
H      -0.00703115       2.85286681       1.73951268        1 
H      -1.74251527       1.30797529      -1.93541476        1 
H      -1.08230448       0.25640360       1.97623110        1 
H       1.11104114       0.86660229       1.87775114        1 
