29
Lattice="0.0 0.0 0.0 0.0 0.0 0.0 0.0 0.0 0.0" Properties=species:S:1:pos:R:3:Z:I:1 pbc="F F F"
C      -0.81114217       0.67465445       0.90079271        6 
C       0.73496539       0.40862040       0.96791902        6 
C      -1.70412544      -0.52212125       0.64178810        6 
C       1.23569295      -0.83578692       0.25207098        6 
O      -2.25864453      -0.49876953      -0.58668053        8 
O      -1.91188833      -1.38592209       1.45681859        8 
O       2.57283349      -0.75351073       0.05518348        8 
O       0.58980609      -1.80534776      -0.05426012        8 
C       3.18325990      -1.88498038      -0.59200922        6 
C      -3.04353658      -1.65347224      -0.93746173        6 
C      -0.91848593       1.93560002      -0.01764808        6 
C      -0.31718812       1.60949765      -1.37484062        6 
C       1.00728642       1.50787822      -1.22085947        6 
C       1.30733661       1.71091780       0.25961164        6 
C       0.23276661       2.76159816       0.60685063        6 
H       3.02485564      -2.79264001      -0.00785662        1 
H      -3.88306541      -1.77080443      -0.25060342        1 
H       1.73339634       1.19804111      -1.96029541        1 
H       4.24285968      -1.64675123      -0.65328320        1 
H       2.76263132      -2.02394145      -1.58952067        1 
H      -3.39863361      -1.46710282      -1.94893680        1 
H      -2.42029352      -2.54805990      -0.90412164        1 
H       2.33961428       1.92845873       0.52161349        1 
H      -1.91250134       2.37981772      -0.02547341        1 
H       0.40213109       3.70839224       0.09141603        1 
H       0.11223989       2.93940229       1.67939795        1 
H      -0.89386254       1.40271889      -2.26510430        1 
H      -1.10734441       0.98540958       1.90702711        1 
H       1.07299753       0.33902168       2.00429071        1 
