29
Lattice="0.0 0.0 0.0 0.0 0.0 0.0 0.0 0.0 0.0" Properties=species:S:1:pos:R:3:Z:I:1 pbc="F F F"
C      -0.71454404       0.56464889       0.78298261        6 
C       0.84498815       0.56390563       0.96504411        6 
C      -1.39584587      -0.68977119       0.28366883        6 
C       1.64772139      -0.67992057       0.62202518        6 
O      -2.73617712      -0.48988825       0.26230316        8 
O      -0.88322991      -1.72549930      -0.05749453        8 
O       1.71098012      -0.94116671      -0.69268198        8 
O       2.26595482      -1.30553522       1.45307038        8 
C       2.36396526      -2.16554670      -1.06438350        6 
C      -3.53562491      -1.59660639      -0.19353030        6 
C      -0.98469290       1.85741573      -0.07983678        6 
C      -0.39537922       1.61392990      -1.45562631        6 
C       0.93526004       1.61110385      -1.32679826        6 
C       1.25952919       1.85287513       0.14016437        6 
C       0.08975758       2.79035860       0.52188199        6 
H       3.39533646      -2.17939871      -0.70903391        1 
H      -3.38764930      -2.46595276       0.44905907        1 
H       1.66381041       1.36610648      -2.08546777        1 
H       2.32956819      -2.19323449      -2.15166403        1 
H       1.82042518      -3.01373605      -0.64543063        1 
H      -4.56572973      -1.25108384      -0.13844316        1 
H      -3.27392084      -1.86046488      -1.21942321        1 
H       2.27075897       2.19091445       0.36248288        1 
H      -2.02216347       2.18236780      -0.03951074        1 
H       0.13995689       3.75138617       0.00786900        1 
H      -0.01537211       2.94867469       1.59916938        1 
H      -0.96908447       1.36952367      -2.34007732        1 
H      -1.16380512       0.74231584       1.76550698        1 
H       1.06771442       0.73934275       2.01689656        1 
