29
Lattice="0.0 0.0 0.0 0.0 0.0 0.0 0.0 0.0 0.0" Properties=species:S:1:pos:R:3:Z:I:1 pbc="F F F"
C      -0.96971979       0.46115691       0.92367685        6 
C       0.58039928       0.68926927       0.83979473        6 
C      -1.57969613      -0.86650556       0.51651204        6 
C       1.45530575      -0.49535014       0.49115184        6 
O      -1.23717521      -1.25768026      -0.72216751        8 
O      -2.38547760      -1.45449016       1.20028245        8 
O       2.66782020      -0.08112415       0.05834505        8 
O       1.15982209      -1.65848050       0.60720543        8 
C       3.61143783      -1.12239935      -0.25681586        6 
C      -1.74895636      -2.53116466      -1.14791622        6 
C      -1.50913490       1.66798201       0.04077411        6 
C      -1.05886812       1.44329566      -1.39477054        6 
C       0.26381502       1.62933594      -1.44178237        6 
C       0.72287325       1.98383303      -0.04040387        6 
C      -0.50958604       2.76808037       0.46549806        6 
H       3.81479513      -1.73317759       0.62412357        1 
H      -2.83938316      -2.54156260      -1.11199990        1 
H       0.92243062       1.44879886      -2.28061671        1 
H       4.51239745      -0.60779854      -0.58343295        1 
H       3.22210568      -1.75970957      -1.05220311        1 
H      -1.39578055      -2.65783322      -2.16925349        1 
H      -1.35652180      -3.32239622      -0.50733034        1 
H       1.69744551       2.45794398       0.04775190        1 
H      -2.57040142       1.85917749       0.19328398        1 
H      -0.66279640       3.70167916      -0.07821199        1 
H      -0.50090867       2.96219192       1.54210182        1 
H      -1.69548032       1.08030947      -2.18917874        1 
H      -1.30225464       0.60991228       1.94983371        1 
H       0.91788881       0.95171746       1.85096974        1 
