29
Lattice="0.0 0.0 0.0 0.0 0.0 0.0 0.0 0.0 0.0" Properties=species:S:1:pos:R:3:Z:I:1 pbc="F F F"
C       0.41760093       1.05713393       0.59776378        6 
C       0.68085077      -0.42653399       1.00999246        6 
C      -0.93122523       1.54814218       0.12307738        6 
C      -0.17887677      -1.57045025       0.51329667        6 
O      -1.94522957       0.77492537       0.55681357        8 
O      -1.10146487       2.62850533      -0.39216721        8 
O      -0.78003296      -1.34044415      -0.66658626        8 
O      -0.20697957      -2.64514162       1.06941400        8 
C      -1.53014170      -2.43330871      -1.22048825        6 
C      -3.27351056       1.25408656       0.28200173        6 
C       1.67067564       1.46459563      -0.24347675        6 
C       1.71429583       0.59288086      -1.48430894        6 
C       2.01892159      -0.64963493      -1.09586952        6 
C       2.15672807      -0.63773695       0.41962880        6 
C       2.75421436       0.77147496       0.61915145        6 
H      -0.88728370      -3.30047455      -1.38046412        1 
H      -3.43284624       1.33290140      -0.79454743        1 
H       2.03368450      -1.54110789      -1.70892478        1 
H      -1.92125748      -2.06571212      -2.16690106        1 
H      -2.34550288      -2.71281539      -0.55112341        1 
H      -3.94262517       0.51302267       0.71394876        1 
H      -3.43206355       2.23136889       0.74041492        1 
H       2.66840144      -1.48552680       0.87079749        1 
H       1.74776029       2.53815789      -0.39816606        1 
H       3.75264846       0.85925312       0.18838455        1 
H       2.76939332       1.10485022       1.66092607        1 
H       1.43516923       0.92000824      -2.47693883        1 
H       0.50270485       1.62886005       1.53251766        1 
H       0.71253722      -0.52840147       2.09380667        1 
