29
Lattice="0.0 0.0 0.0 0.0 0.0 0.0 0.0 0.0 0.0" Properties=species:S:1:pos:R:3:Z:I:1 pbc="F F F"
C      -0.71479210       0.56624280      -0.99469222        6 
C      -0.54802124      -0.98042020      -0.73623218        6 
C       0.39937891       1.49344839      -0.56289300        6 
C       0.71198497      -1.42680137      -0.02536661        6 
O       0.80289798       1.27156063       0.70368461        8 
O       0.87106612       2.35434484      -1.26732471        8 
O       1.79875943      -1.12540056      -0.77151296        8 
O       0.77001357      -2.00385081       1.03119800        8 
C       3.07391297      -1.45739581      -0.19610891        6 
C       1.87487324       2.09891740       1.18620965        6 
C      -2.11929856       0.85851918      -0.32278936        6 
C      -1.99229492       0.62795435       1.17362506        6 
C      -1.84905291      -0.68629544       1.37052276        6 
C      -1.87597904      -1.35913282       0.00649611        6 
C      -2.86443776      -0.43193785      -0.73841067        6 
H       3.19696981      -0.95458100       0.76463698        1 
H       1.58370072       3.15020837       1.17218054        1 
H      -1.62174527      -1.19299933       2.29673889        1 
H       3.81495410      -1.10785786      -0.91157129        1 
H       3.15924976      -2.53528147      -0.04941018        1 
H       2.06096147       1.76460412       2.20446342        1 
H       2.76427019       1.96725657       0.56734240        1 
H      -2.08254750      -2.42804249       0.00010439        1 
H      -2.54366032       1.81038413      -0.63959129        1 
H      -3.87457634      -0.48080564      -0.32923066        1 
H      -2.89595105      -0.59295713      -1.82075450        1 
H      -1.90880018       1.41228531       1.91319642        1 
H      -0.81088737       0.73993720      -2.06610782        1 
H      -0.52281687      -1.47220654      -1.71322970        1 
