29
Lattice="0.0 0.0 0.0 0.0 0.0 0.0 0.0 0.0 0.0" Properties=species:S:1:pos:R:3:Z:I:1 pbc="F F F"
C      -0.91227603       0.54786038      -0.77773838        6 
C      -0.14927439      -0.82082395      -0.76868322        6 
C      -0.28294693       1.81399392      -0.23716494        6 
C       1.10426463      -0.95764080       0.06946178        6 
O       1.05984318       1.79341023      -0.30061435        8 
O      -0.91867118       2.80241955       0.04565506        8 
O       2.04560750      -1.65084331      -0.61705515        8 
O       1.26760621      -0.57052125       1.19908602        8 
C       3.27503574      -1.90126808       0.08587560        6 
C       1.73641943       2.98753064       0.13075706        6 
C      -2.32925045       0.20415612      -0.20832210        6 
C      -2.14776984      -0.20577419       1.24170956        6 
C      -1.52900809      -1.39110655       1.25005112        6 
C      -1.28063492      -1.79196878      -0.19806073        6 
C      -2.53114929      -1.18040396      -0.86824937        6 
H       3.73734160      -0.96116926       0.39077156        1 
H       1.50815905       3.19022354       1.17785442        1 
H      -1.14230038      -1.91966500       2.10991243        1 
H       3.91107486      -2.43108966      -0.62004940        1 
H       3.09266915      -2.51298010       0.97126823        1 
H       2.79676073       2.77995028       0.00592275        1 
H       1.43409369       3.84063045      -0.47837791        1 
H      -1.06883744      -2.84414595      -0.38496933        1 
H      -3.06666888       0.97757637      -0.40968983        1 
H      -3.45339873      -1.66642670      -0.54737649        1 
H      -2.48169921      -1.16278909      -1.96148671        1 
H      -2.37293549       0.42415962       2.09124813        1 
H      -1.05237957       0.80762603      -1.83556989        1 
H       0.09633983      -1.11971946      -1.78642439        1 
