29
Lattice="0.0 0.0 0.0 0.0 0.0 0.0 0.0 0.0 0.0" Properties=species:S:1:pos:R:3:Z:I:1 pbc="F F F"
C       0.23701775       1.11007627       0.80229705        6 
C       0.68125241      -0.40570519       0.96546825        6 
C      -0.98755853       1.50981567      -0.01129259        6 
C      -0.27942236      -1.53310345       0.63683466        6 
O      -2.05979092       0.75265433       0.24704485        8 
O      -1.01039356       2.46051303      -0.75932196        8 
O       0.20732460      -2.34466575      -0.33266203        8 
O      -1.33749902      -1.72429043       1.17948663        8 
C      -0.61926046      -3.46800040      -0.68466867        6 
C      -3.27334030       1.08935339      -0.44829713        6 
C       1.53050997       1.75240762       0.17421827        6 
C       1.60152649       1.22242717      -1.25236651        6 
C       1.91851767      -0.07456077      -1.18160702        6 
C       2.08898103      -0.42750687       0.28800503        6 
C       2.64328684       0.91054768       0.83198631        6 
H      -0.77876391      -4.11249792       0.18138943        1 
H      -3.11323722       1.06671838      -1.52728021        1 
H       1.95217925      -0.79056753      -1.99066007        1 
H      -0.07259007      -3.99835561      -1.46161510        1 
H      -1.58603684      -3.12724395      -1.05855755        1 
H      -3.99274046       0.33096220      -0.14797413        1 
H      -3.61670024       2.08385153      -0.15830493        1 
H       2.65503518      -1.33198151       0.50395657        1 
H       1.57048880       2.83301432       0.28792699        1 
H       3.63153943       1.14753863       0.43562012        1 
H       2.65947057       0.96782774       1.92462088        1 
H       1.31539748       1.78736065      -2.12772431        1 
H       0.05507650       1.51802740       1.80140810        1 
H       0.83704065      -0.54603479       2.04080740        1 
