29
Lattice="0.0 0.0 0.0 0.0 0.0 0.0 0.0 0.0 0.0" Properties=species:S:1:pos:R:3:Z:I:1 pbc="F F F"
C      -0.49760717       0.86100484      -0.72527954        6 
C      -0.64606211      -0.71438690      -0.84922365        6 
C       0.66065778       1.35506032       0.11559501        6 
C       0.33246608      -1.55046049      -0.04672795        6 
O       1.73686327       1.60060524      -0.66313257        8 
O       0.64985798       1.55017128       1.30673775        8 
O       1.57086183      -1.46868958      -0.58345676        8 
O       0.08010830      -2.21164323       0.92896653        8 
C       2.60796898      -2.18983763       0.10650968        6 
C       2.92525065       2.03361446       0.02027411        6 
C      -1.91908757       1.29321516      -0.22566045        6 
C      -2.13939486       0.71722209       1.16491722        6 
C      -2.28293702      -0.60472738       1.03483483        6 
C      -2.14716278      -0.93817120      -0.44498285        6 
C      -2.78475398       0.32507203      -1.06806171        6 
H       2.69876223      -1.83544872       1.13460791        1 
H       3.25074809       1.27680526       0.73628393        1 
H      -2.34793065      -1.33896798       1.82362468        1 
H       3.51960897      -1.99003543      -0.45238830        1 
H       2.38976689      -3.25886677       0.11532796        1 
H       3.67337039       2.17014234      -0.75756082        1 
H       2.74487719       2.97071293       0.54938288        1 
H      -2.53421531      -1.90653038      -0.75989935        1 
H      -2.10129548       2.36111018      -0.34331818        1 
H      -3.84842867       0.41018305      -0.84245063        1 
H      -2.62680907       0.41627139      -2.14755000        1 
H      -2.06308243       1.28193095       2.08219164        1 
H      -0.33434756       1.25474001      -1.72942024        1 
H      -0.49323372      -0.98302988      -1.89728137        1 
