29
Lattice="0.0 0.0 0.0 0.0 0.0 0.0 0.0 0.0 0.0" Properties=species:S:1:pos:R:3:Z:I:1 pbc="F F F"
C      -0.94701503       0.56157368      -0.79985844        6 
C      -0.11390377      -0.76689087      -0.83677410        6 
C      -0.33266709       1.75502843      -0.09823178        6 
C       1.15436612      -0.81247873      -0.01802548        6 
O       0.81365698       2.12297373      -0.70949875        8 
O      -0.82908027       2.36204161       0.81751754        8 
O       1.97463144      -1.78132718      -0.48769018        8 
O       1.41207086      -0.14420741       0.95271825        8 
C       3.18907410      -1.99343727       0.25517651        6 
C       1.55020285       3.18258714      -0.07408369        6 
C      -2.32676762       0.10635066      -0.21745467        6 
C      -2.09169214      -0.34119726       1.21625431        6 
C      -1.41269912      -1.49204451       1.17461067        6 
C      -1.16767006      -1.82668392      -0.28897326        6 
C      -2.46065777      -1.26511646      -0.92114372        6 
H       3.80070933      -1.09003465       0.25174855        1 
H       1.86213787       2.86725300       0.92281464        1 
H      -0.98264146      -2.02719823       2.01060837        1 
H       3.70273292      -2.80570761      -0.25437963        1 
H       2.96284968      -2.26816437       1.28674402        1 
H       2.41636250       3.35678426      -0.70907302        1 
H       0.94078757       4.08410279       0.00157865        1 
H      -0.89035193      -2.85382806      -0.52064865        1 
H      -3.12110939       0.83402357      -0.37198751        1 
H      -3.34891411      -1.81491664      -0.60684800        1 
H      -2.42629901      -1.20784751      -2.01359173        1 
H      -2.33027706       0.25228186       2.08652323        1 
H      -1.08755232       0.88187005      -1.83726448        1 
H       0.14354183      -1.02879122      -1.86333945        1 
