29
Lattice="0.0 0.0 0.0 0.0 0.0 0.0 0.0 0.0 0.0" Properties=species:S:1:pos:R:3:Z:I:1 pbc="F F F"
C       0.33431115       1.08581170       0.57482380        6 
C       0.68837289      -0.36231344       1.03554450        6 
C      -1.04609464       1.45115230       0.08156442        6 
C      -0.04767779      -1.57122886       0.48902814        6 
O      -2.00532086       0.74931513       0.71886224        8 
O      -1.28321568       2.40416265      -0.62244669        8 
O      -0.82731887      -1.31381160      -0.57491106        8 
O       0.16780603      -2.69171570       0.89211085        8 
C      -1.40720947      -2.45575018      -1.22816202        6 
C      -3.36407360       1.10185302       0.40949600        6 
C       1.55676676       1.53839236      -0.28368593        6 
C       1.67835486       0.60605981      -1.47603638        6 
C       2.07987749      -0.58515039      -1.02036486        6 
C       2.19339192      -0.48186702       0.49481816        6 
C       2.68150199       0.97662094       0.62194816        6 
H      -0.62499498      -3.12009451      -1.59972329        1 
H      -3.56585524       0.94146786      -0.65108425        1 
H       2.17804863      -1.50465065      -1.58290941        1 
H      -1.98952254      -2.05189539      -2.05359742        1 
H      -2.04681480      -3.00840820      -0.53851856        1 
H      -3.97974140       0.44222349       1.01741136        1 
H      -3.55864596       2.14653093       0.65675078        1 
H       2.75610213      -1.26579241       0.99630096        1 
H       1.55434531       2.60422497      -0.49923561        1 
H       3.67513157       1.11482767       0.19354378        1 
H       2.66075382       1.36657727       1.64383557        1 
H       1.38780268       0.85979132      -2.48655006        1 
H       0.38091556       1.69435329       1.48869396        1 
H       0.67733727      -0.45146998       2.12134990        1 
