29
Lattice="0.0 0.0 0.0 0.0 0.0 0.0 0.0 0.0 0.0" Properties=species:S:1:pos:R:3:Z:I:1 pbc="F F F"
C      -1.07805758       0.21385364      -0.69069765        6 
C       0.16821700      -0.72270276      -0.80251574        6 
C      -1.01080234       1.65757494      -0.23593019        6 
C       1.40053130      -0.45425175       0.03636057        6 
O       0.23522473       2.15054007      -0.18777004        8 
O      -1.99989022       2.34667031      -0.12810655        8 
O       2.49107993      -0.95903958      -0.59792921        8 
O       1.45687803       0.07048495       1.11792451        8 
C       3.73639317      -0.84421952       0.11182705        6 
C       0.35413626       3.55338335       0.10889218        6 
C      -2.18922905      -0.68334844      -0.04271288        6 
C      -1.72310554      -1.09731566       1.34155836        6 
C      -0.71169115      -1.95779685       1.18748299        6 
C      -0.46453764      -2.11248761      -0.30740529        6 
C      -1.91060128      -1.98531565      -0.83217676        6 
H       3.96208155       0.20277910       0.32006092        1 
H      -0.11053595       3.77872501       1.06923378        1 
H      -0.07786028      -2.36421336       1.96358952        1 
H       4.48773282      -1.27447077      -0.54700870        1 
H       3.69323005      -1.39377819       1.05384251        1 
H       1.42327258       3.74907467       0.14655841        1 
H      -0.12260055       4.15032002      -0.67061662        1 
H       0.11855143      -2.97624472      -0.62236305        1 
H      -3.18118866      -0.24378550      -0.11639244        1 
H      -2.53911044      -2.81678814      -0.50993010        1 
H      -1.98192191      -1.86654564      -1.91743765        1 
H      -2.08647570      -0.67211679       2.26734860        1 
H      -1.40949585       0.36222842      -1.72716499        1 
H       0.48342399      -0.82038457      -1.84021887        1 
