29
Lattice="0.0 0.0 0.0 0.0 0.0 0.0 0.0 0.0 0.0" Properties=species:S:1:pos:R:3:Z:I:1 pbc="F F F"
C      -0.79790907       0.28972080       0.74636781        6 
C       0.75704596       0.45680638       0.77201327        6 
C      -1.42300567      -0.97967539       0.20912921        6 
C       1.64916245      -0.44377901      -0.06301062        6 
O      -2.77222821      -0.89940447       0.36078799        8 
O      -0.87810525      -1.93246431      -0.28078671        8 
O       2.72954746      -0.81660429       0.67365373        8 
O       1.49203062      -0.77699604      -1.20687020        8 
C       3.68229623      -1.65360829      -0.00514758        6 
C      -3.52499036      -2.03228720      -0.10698051        6 
C      -1.32153666       1.64650424       0.13866447        6 
C      -0.81845636       1.74062781      -1.28755569        6 
C       0.50384362       1.92993193      -1.23698776        6 
C       0.90955105       1.95352402       0.22898739        6 
C      -0.34359928       2.61231194       0.84511307        6 
H       3.20145889      -2.56742302      -0.35743773        1 
H      -3.24258670      -2.93298517       0.44077449        1 
H       1.19331790       1.92580282      -2.06908299        1 
H       4.44814803      -1.88143007       0.73333683        1 
H       4.11660139      -1.12790085      -0.85771720        1 
H      -4.56793461      -1.78396787       0.07857837        1 
H      -3.35194164      -2.19371742      -1.17217173        1 
H       1.88001826       2.38953128       0.46084441        1 
H      -2.38694610       1.79501068       0.29856115        1 
H      -0.46973816       3.64556457       0.51847988        1 
H      -0.38195468       2.55859722       1.93704890        1 
H      -1.41755940       1.55700937      -2.16959794        1 
H      -1.12204944       0.29609078       1.79363570        1 
H       1.11320720       0.41206846       1.79974042        1 
