29
Lattice="0.0 0.0 0.0 0.0 0.0 0.0 0.0 0.0 0.0" Properties=species:S:1:pos:R:3:Z:I:1 pbc="F F F"
C      -0.73509440       0.41536421      -1.01983448        6 
C      -0.34572087      -1.06172147      -0.63951620        6 
C      -0.00744853       1.60451788      -0.40835649        6 
C       1.00112261      -1.33433648      -0.00888175        6 
O       1.13592258       1.29751289       0.22478053        8 
O      -0.46083098       2.72496756      -0.44002711        8 
O       1.99115429      -1.10209393      -0.89785879        8 
O       1.18434990      -1.81618636       1.08228498        8 
C       3.32922104      -1.28926129      -0.41306417        6 
C       1.78704173       2.37538462       0.92247327        6 
C      -2.23987850       0.47858944      -0.50917336        6 
C      -2.13608566       0.50887351       1.01206962        6 
C      -1.72242555      -0.70021513       1.40847808        6 
C      -1.58218035      -1.56791430       0.16709412        6 
C      -2.70158119      -0.97684951      -0.72291998        6 
H       3.51779984      -0.63196712       0.43777616        1 
H       1.11353525       2.80416632       1.66541547        1 
H      -1.42971820      -1.00724564       2.40245949        1 
H       3.98050020      -1.03090531      -1.24535738        1 
H       3.48860544      -2.32456747      -0.10746003        1 
H       2.65208301       1.92545326       1.40439201        1 
H       2.09444143       3.15269643       0.22173008        1 
H      -1.57656628      -2.64431982       0.32889229        1 
H      -2.81274184       1.27640529      -0.97482633        1 
H      -3.70006591      -1.15691757      -0.32207118        1 
H      -2.65550079      -1.30909687      -1.76476163        1 
H      -2.25123548       1.39918678       1.61531841        1 
H      -0.69588169       0.55055500      -2.10326223        1 
H      -0.31323415      -1.61720233      -1.58251175        1 
