29
Lattice="0.0 0.0 0.0 0.0 0.0 0.0 0.0 0.0 0.0" Properties=species:S:1:pos:R:3:Z:I:1 pbc="F F F"
C      -0.38270516       0.86264488      -0.98246932        6 
C      -1.05188676      -0.55949414      -0.83057877        6 
C       1.11814975       0.91954027      -0.76988187        6 
C      -0.21632872      -1.73558072      -0.37718360        6 
O       1.48059054       1.49484515       0.39079980        8 
O       1.91347497       0.54747863      -1.60085559        8 
O       0.71909490      -1.40344819       0.53285192        8 
O      -0.39196839      -2.86574634      -0.76660732        8 
C       1.57573743      -2.46859300       0.98269723        6 
C       2.89279119       1.53904725       0.65319362        6 
C      -1.29573282       1.76866236      -0.07815281        6 
C      -1.13980860       1.32583522       1.36906801        6 
C      -1.71916626       0.12835864       1.49137670        6 
C      -2.27371441      -0.25308572       0.12934567        6 
C      -2.67184898       1.14155688      -0.40603615        6 
H       0.98546441      -3.28559097       1.39908526        1 
H       3.41121627       2.10956207      -0.11875753        1 
H      -1.70237653      -0.52263107       2.35511116        1 
H       2.21224779      -2.02538397       1.74536907        1 
H       2.17555646      -2.84279355       0.15150869        1 
H       2.99368478       2.02350028       1.62210748        1 
H       3.30042161       0.52724932       0.68492774        1 
H      -3.02751225      -1.03899676       0.10795364        1 
H      -1.17122469       2.83314700      -0.27172645        1 
H      -3.48490043       1.58966881       0.16679971        1 
H      -2.92143081       1.14953928      -1.47131855        1 
H      -0.55856884       1.85196073       2.11153542        1 
H      -0.51125454       1.16385975      -2.02424712        1 
H      -1.45384547      -0.87007934      -1.79518547        1 
