29
Lattice="0.0 0.0 0.0 0.0 0.0 0.0 0.0 0.0 0.0" Properties=species:S:1:pos:R:3:Z:I:1 pbc="F F F"
C      -0.49280938       0.72169565      -1.01925282        6 
C      -0.89030760      -0.79850743      -0.81472532        6 
C       0.94537230       1.06528939      -0.66972319        6 
C       0.24122227      -1.73785410      -0.45501326        6 
O       1.05259118       2.01910773       0.27603199        8 
O       1.90085164       0.58727037      -1.23277936        8 
O       0.62185333      -1.63372438       0.83616650        8 
O       0.78151684      -2.46897416      -1.24721655        8 
C       1.76873439      -2.41860304       1.21266269        6 
C       2.39391950       2.40918798       0.62448560        6 
C      -1.62670544       1.46720158      -0.22164994        6 
C      -1.42031428       1.18549516       1.26022452        6 
C      -1.70921676      -0.10190161       1.46970683        6 
C      -2.13238655      -0.70175901       0.13771446        6 
C      -2.82306188       0.52783713      -0.50614214        6 
H       1.56708538      -3.48200527       1.07481127        1 
H       2.91447420       2.80848998      -0.24717164        1 
H      -1.57182952      -0.66556870       2.38133985        1 
H       1.94062287      -2.19453650       2.26339123        1 
H       2.63112395      -2.13426348       0.60814454        1 
H       2.28330236       3.17336504       1.39058171        1 
H       2.94870998       1.55331880       1.01160272        1 
H      -2.70209907      -1.62957542       0.18163337        1 
H      -1.73266012       2.51361983      -0.50339868        1 
H      -3.72588598       0.82783500       0.02721155        1 
H      -3.04601709       0.39947219      -1.56993673        1 
H      -1.00011373       1.88816642       1.96420053        1 
H      -0.57498361       0.94756039      -2.08537704        1 
H      -1.23758606      -1.17721093      -1.77698822        1 
