29
Lattice="0.0 0.0 0.0 0.0 0.0 0.0 0.0 0.0 0.0" Properties=species:S:1:pos:R:3:Z:I:1 pbc="F F F"
C      -0.82078562       0.59607079       0.96954452        6 
C       0.74245808       0.53514457       0.82049939        6 
C      -1.62662186      -0.65190191       0.64959704        6 
C       1.35259229      -0.72001964       0.23777467        6 
O      -1.89402934      -0.80403993      -0.65766681        8 
O      -2.07061960      -1.37917070       1.50773679        8 
O       2.70239751      -0.62186953       0.25865629        8 
O       0.77122284      -1.68072798      -0.20063070        8 
C       3.42493994      -1.74538154      -0.27871363        6 
C      -2.56034436      -2.02311756      -1.02472096        6 
C      -1.17800577       1.88674136       0.13367037        6 
C      -0.80829055       1.64319032      -1.32246050        6 
C       0.52550008       1.62086566      -1.40737121        6 
C       1.07219467       1.83921650      -0.00895897        6 
C      -0.00021380       2.79408745       0.56172133        6 
H       3.20989551      -2.64727327       0.29660306        1 
H      -3.52643169      -2.10275411      -0.52385645        1 
H       1.12223738       1.36750515      -2.27385224        1 
H       4.47639565      -1.47960262      -0.19575966        1 
H       3.15135203      -1.91256474      -1.32164724        1 
H      -2.68942470      -1.96910199      -2.10380839        1 
H      -1.93798161      -2.87789085      -0.75619610        1 
H       2.11514666       2.13801006       0.07041454        1 
H      -2.18755049       2.25045820       0.32083467        1 
H      -0.00859681       3.75923666       0.05283477        1 
H       0.07052489       2.94397140       1.64303203        1 
H      -1.51730916       1.41648766      -2.10470969        1 
H      -1.04690768       0.78960927       2.01820801        1 
H       1.19393631       0.64819824       1.81008412        1 
