29
Lattice="0.0 0.0 0.0 0.0 0.0 0.0 0.0 0.0 0.0" Properties=species:S:1:pos:R:3:Z:I:1 pbc="F F F"
C      -0.02407059       0.97457385       0.69436985        6 
C       0.89677511      -0.27680102       0.96156322        6 
C      -1.34225820       0.85250101      -0.04596676        6 
C       0.52395627      -1.70062897       0.60658560        6 
O      -2.36006584       1.21988889       0.77800207        8 
O      -1.52213233       0.50793653      -1.18475980        8 
O      -0.24570628      -1.81989732      -0.47982405        8 
O       0.94374648      -2.64651612       1.23626025        8 
C      -0.58065744      -3.15624135      -0.89192569        6 
C      -3.67857622       1.17362044       0.20486787        6 
C       0.96061398       1.94334703      -0.08822661        6 
C       1.25634635       1.30150822      -1.43313423        6 
C       2.03335063       0.23665639      -1.20885975        6 
C       2.26737077       0.14871230       0.28553069        6 
C       2.27907074       1.64679911       0.65761160        6 
H       0.32176474      -3.71629902      -1.14259630        1 
H      -3.91947752       0.15906524      -0.11696620        1 
H       2.33516195      -0.51221715      -1.92879900        1 
H      -1.21343202      -3.03284673      -1.76785163        1 
H      -1.11608774      -3.67876833      -0.09759505        1 
H      -4.35168665       1.49393448       0.99734837        1 
H      -3.74828865       1.84524141      -0.65252441        1 
H       3.10085844      -0.46563981       0.62146438        1 
H       0.61144980       2.97530570      -0.10877636        1 
H       3.12957792       2.17482539       0.22367466        1 
H       2.23260768       1.83492907       1.73411260        1 
H       0.79927515       1.59032205      -2.36827534        1 
H      -0.25507293       1.42243114       1.66002371        1 
H       1.07426715      -0.32562670       2.03695856        1 
