29
Lattice="0.0 0.0 0.0 0.0 0.0 0.0 0.0 0.0 0.0" Properties=species:S:1:pos:R:3:Z:I:1 pbc="F F F"
C       0.79237368      -0.83819462      -0.83750953        6 
C       0.66496366       0.73632049      -0.98576296        6 
C      -0.47422733      -1.60202472      -0.51554908        6 
C      -0.71262628       1.32174780      -0.74089106        6 
O      -0.90382177      -1.42300165       0.74935199        8 
O      -1.05731611      -2.29199616      -1.31769187        8 
O      -0.93927340       1.68404876       0.53472434        8 
O      -1.52523514       1.47876419      -1.62240151        8 
C      -2.25258409       2.19566151       0.82017210        6 
C      -2.13458335      -2.08427781       1.09609678        6 
C       2.01919978      -0.98785844       0.13972173        6 
C       1.65590548      -0.41359673       1.49784048        6 
C       1.56482190       0.91195211       1.36445948        6 
C       1.85582784       1.24916333      -0.09002458        6 
C       2.90297452       0.15645856      -0.41310985        6 
H      -2.44555432       3.10360681       0.24662935        1 
H      -2.03212256      -3.16550870       0.99219966        1 
H       1.22745972       1.62265796       2.10399673        1 
H      -2.25488155       2.40686921       1.88732091        1 
H      -3.01032831       1.45001283       0.57410704        1 
H      -2.32475085      -1.81419407       2.13258684        1 
H      -2.94553586      -1.74059309       0.45185403        1 
H       2.12900335       2.28241696      -0.30184217        1 
H       2.44038429      -1.99291838       0.13230834        1 
H       3.82654474       0.28226103       0.15345391        1 
H       3.13292574       0.06228674      -1.47887419        1 
H       1.40662654      -1.00316634       2.36833203        1 
H       1.08437206      -1.23266366      -1.81097767        1 
H       0.87026554       0.97991845      -2.02874933        1 
