29
Lattice="0.0 0.0 0.0 0.0 0.0 0.0 0.0 0.0 0.0" Properties=species:S:1:pos:R:3:Z:I:1 pbc="F F F"
C       0.46350079       1.05283634       0.65875398        6 
C       0.69055754      -0.46951668       1.04319916        6 
C      -0.77818505       1.34361247      -0.15934659        6 
C      -0.42446260      -1.42969007       0.68507049        6 
O      -1.84203754       1.49625401       0.66309525        8 
O      -0.86143218       1.40495046      -1.36046302        8 
O      -0.49742097      -1.69081618      -0.63251280        8 
O      -1.18339670      -1.90547316       1.49745371        8 
C      -1.56495264      -2.55690332      -1.05575980        6 
C      -3.11610891       1.69326192       0.02374372        6 
C       1.81452767       1.42462426      -0.05135045        6 
C       1.89169468       0.65499780      -1.35924384        6 
C       2.07613991      -0.63315807      -1.05894737        6 
C       2.12574293      -0.75082773       0.45340184        6 
C       2.79878077       0.59710933       0.80846570        6 
H      -1.47570097      -3.53583382      -0.58229932        1 
H      -3.35829142       0.84014755      -0.61225344        1 
H       2.06515297      -1.47033336      -1.74182065        1 
H      -1.45849474      -2.63846367      -2.13514487        1 
H      -2.53238257      -2.12259748      -0.79877385        1 
H      -3.83636499       1.78139446       0.83390979        1 
H      -3.10441898       2.60024881      -0.58252257        1 
H       2.57492073      -1.65746027       0.85815025        1 
H       1.98004486       2.49963654      -0.11334843        1 
H       3.82451786       0.65911374       0.44261717        1 
H       2.76847858       0.83901675       1.87538918        1 
H       1.69890624       1.07856711      -2.33339001        1 
H       0.36325828       1.61458774       1.58853233        1 
H       0.74662479      -0.53065199       2.13003630        1 
