29
Lattice="0.0 0.0 0.0 0.0 0.0 0.0 0.0 0.0 0.0" Properties=species:S:1:pos:R:3:Z:I:1 pbc="F F F"
C      -0.75857039       0.69759213      -0.85597607        6 
C      -0.32846568      -0.81599951      -0.73741368        6 
C       0.09956972       1.68662186      -0.09146515        6 
C       0.90309514      -1.10828609       0.08685411        6 
O       1.27507168       1.86461724      -0.74064189        8 
O      -0.16956072       2.22366282       0.95119054        8 
O       1.72090573      -1.96255184      -0.57258342        8 
O       1.13585204      -0.69858789       1.19754436        8 
C       2.90622509      -2.37042783       0.13441571        6 
C       2.25855483       2.65787727      -0.05076280        6 
C      -2.25991087       0.65836150      -0.38790794        6 
C      -2.27367402       0.31000299       1.09342024        6 
C      -1.90630716      -0.96940270       1.21073026        6 
C      -1.64276961      -1.50019959      -0.18710184        6 
C      -2.68988573      -0.69726451      -0.99394706        6 
H       3.52994284      -1.50506164       0.36393178        1 
H       2.49973181       2.19758252       0.90850598        1 
H      -1.69655965      -1.50664677       2.12512948        1 
H       3.42596890      -3.04929662      -0.53812115        1 
H       2.64199521      -2.87733400       1.06385591        1 
H       3.12921878       2.67155380      -0.70303794        1 
H       1.88781126       3.67030547       0.11546634        1 
H      -1.63489797      -2.58280773      -0.31047065        1 
H      -2.82409825       1.54251758      -0.68150647        1 
H      -3.71369256      -0.96874408      -0.73241653        1 
H      -2.55459741      -0.76336969      -2.07833097        1 
H      -2.42507443       1.02369555       1.88874167        1 
H      -0.70175416       0.97804054      -1.90989999        1 
H      -0.13917481      -1.20567852      -1.73753905        1 
