29
Lattice="0.0 0.0 0.0 0.0 0.0 0.0 0.0 0.0 0.0" Properties=species:S:1:pos:R:3:Z:I:1 pbc="F F F"
C      -0.78528711       0.29682723       0.75023166        6 
C       0.78363222       0.30308367       0.75758183        6 
C      -1.62341386      -0.74972569       0.04438280        6 
C       1.63356214      -0.72469048       0.03686261        6 
O      -2.83270174      -0.80975191       0.67877685        8 
O      -1.36920404      -1.41091093      -0.92360844        8 
O       2.82911701      -0.81410441       0.69208257        8 
O       1.39285216      -1.35358714      -0.95590695        8 
C       3.79973003      -1.68964342       0.09427255        6 
C      -3.80281360      -1.69030405       0.08805667        6 
C      -1.13254137       1.73468367       0.16108442        6 
C      -0.66314403       1.73893890      -1.28110699        6 
C       0.67383899       1.74966701      -1.27003538        6 
C       1.11841271       1.75034814       0.18028766        6 
C      -0.01864285       2.56747887       0.82551951        6 
H       3.41805687      -2.71105456       0.04929410        1 
H      -3.43400879      -2.71734661       0.07906992        1 
H       1.33191934       1.63117856      -2.11986692        1 
H       4.67563970      -1.63631726       0.73755024        1 
H       4.04568150      -1.35855809      -0.91646009        1 
H      -4.68968413      -1.60790988       0.71316719        1 
H      -4.02655537      -1.38495216      -0.93587501        1 
H       2.14342532       2.05523817       0.38302781        1 
H      -2.16534616       2.02437360       0.34627166        1 
H      -0.02321970       3.60671432       0.49257689        1 
H      -0.02849983       2.52517838       1.91833071        1 
H      -1.30550899       1.61073806      -2.14167969        1 
H      -1.11802081       0.28641014       1.78900114        1 
H       1.11051086       0.28295397       1.79774684        1 
