29
Lattice="0.0 0.0 0.0 0.0 0.0 0.0 0.0 0.0 0.0" Properties=species:S:1:pos:R:3:Z:I:1 pbc="F F F"
C      -0.90999897       0.40537780      -0.89235280        6 
C      -0.06398501      -0.91432934      -0.73397877        6 
C      -0.44364104       1.78725685      -0.47718378        6 
C       1.25862624      -0.94869339       0.01158751        6 
O       0.65802119       1.81029484       0.27730799        8 
O      -1.03216255       2.78414589      -0.83288980        8 
O       2.23165489      -1.40691198      -0.82035797        8 
O       1.46896228      -0.65921595       1.16049469        8 
C       3.54245966      -1.53011362      -0.24173410        6 
C       1.11989210       3.10388216       0.70619871        6 
C      -2.29617344       0.02811406      -0.23421741        6 
C      -2.04766163      -0.17128057       1.24868082        6 
C      -1.34016807      -1.29749506       1.38932257        6 
C      -1.10813335      -1.86885250      -0.00226090        6 
C      -2.41304072      -1.43722308      -0.70367762        6 
H       3.89906620      -0.55828812       0.10370538        1 
H       0.34870657       3.60823164       1.28992294        1 
H      -0.89268506      -1.68084781       2.29453044        1 
H       4.17768436      -1.91051662      -1.03883204        1 
H       3.52629502      -2.22360158       0.60083956        1 
H       1.99614629       2.90376519       1.31837935        1 
H       1.37874444       3.72156783      -0.15532296        1 
H      -0.82984251      -2.92088744      -0.05806703        1 
H      -3.08770897       0.71998793      -0.51478223        1 
H      -3.29201587      -1.93790179      -0.29465162        1 
H      -2.39046962      -1.55456825      -1.79129534        1 
H      -2.29625493       0.54700780       2.01857117        1 
H      -1.09916353       0.53087649      -1.96222772        1 
H       0.12972820      -1.31060233      -1.72961464        1 
