29
Lattice="0.0 0.0 0.0 0.0 0.0 0.0 0.0 0.0 0.0" Properties=species:S:1:pos:R:3:Z:I:1 pbc="F F F"
C      -0.76016522       0.65427744      -0.88748268        6 
C      -0.38156352      -0.87121684      -0.71721864        6 
C       0.12550377       1.63904433      -0.15118682        6 
C       0.84573148      -1.14938592       0.12254230        6 
O       1.39313218       1.56203433      -0.61811651        8 
O      -0.21711416       2.39941857       0.71778032        8 
O       1.80348972      -1.75521951      -0.61392363        8 
O       0.97307644      -0.90638384       1.29839878        8 
C       3.02726155      -2.05936724       0.07845010        6 
C       2.36653893       2.37423484       0.06394129        6 
C      -2.26523843       0.68751473      -0.44085322        6 
C      -2.30198475       0.40881168       1.05396289        6 
C      -1.96785022      -0.87257196       1.23218900        6 
C      -1.71600304      -1.47785333      -0.14051676        6 
C      -2.73541412      -0.68006545      -0.98794174        6 
H       3.48185133      -1.14504476       0.46353807        1 
H       2.44102878       2.06758797       1.10850396        1 
H      -1.78096420      -1.37682615       2.16933886        1 
H       3.67224564      -2.52562509      -0.66301116        1 
H       2.83866894      -2.74182394       0.90864374        1 
H       3.30547993       2.19979457      -0.45711409        1 
H       2.08916681       3.42793164       0.01486025        1 
H      -1.74920207      -2.56513989      -0.20835910        1 
H      -2.79431086       1.57598718      -0.78170471        1 
H      -3.76840919      -0.90585987      -0.71994989        1 
H      -2.59814180      -0.79805540      -2.06762277        1 
H      -2.44279867       1.16301040       1.81353319        1 
H      -0.67651294       0.90422544      -1.94895800        1 
H      -0.19844293      -1.29820566      -1.70287253        1 
