29
Lattice="0.0 0.0 0.0 0.0 0.0 0.0 0.0 0.0 0.0" Properties=species:S:1:pos:R:3:Z:I:1 pbc="F F F"
C      -0.81921428       0.41837786       0.99823821        6 
C       0.70965422       0.62647308       0.69561997        6 
C      -1.54994025      -0.87821999       0.69505712        6 
C       1.55615313      -0.47847888       0.10131858        6 
O      -1.53884185      -1.22603604      -0.59602673        8 
O      -2.19580885      -1.46678501       1.53512513        8 
O       2.84773548      -0.28281227       0.47973116        8 
O       1.22339925      -1.37722530      -0.62692360        8 
C       3.80845858      -1.20617293      -0.06188488        6 
C      -2.22277353      -2.44083344      -0.94231452        6 
C      -1.46805793       1.65882898       0.24440790        6 
C      -1.25878289       1.46543502      -1.24760722        6 
C       0.04306705       1.63206323      -1.50046688        6 
C       0.72544510       1.94526781      -0.18433411        6 
C      -0.39548645       2.73206431       0.53213498        6 
H       3.57432478      -2.22676298       0.24515849        1 
H      -3.29062524      -2.35598142      -0.73208715        1 
H       0.55373059       1.45104752      -2.43664119        1 
H       4.76922939      -0.89614675       0.34343487        1 
H       3.81754289      -1.15515494      -1.15207554        1 
H      -2.04775023      -2.57354139      -2.00772417        1 
H      -1.81120868      -3.28109620      -0.38171699        1 
H       1.71233074       2.40188171      -0.23548127        1 
H      -2.48710015       1.86152324       0.57118357        1 
H      -0.61512882       3.68070179       0.04014451        1 
H      -0.20851490       2.89802905       1.59699878        1 
H      -2.01808639       1.12751280      -1.93783516        1 
H      -0.96966031       0.55579394       2.06840180        1 
H       1.19464085       0.87748275       1.64026808        1 
