29
Lattice="0.0 0.0 0.0 0.0 0.0 0.0 0.0 0.0 0.0" Properties=species:S:1:pos:R:3:Z:I:1 pbc="F F F"
C       0.38358959       1.07083931       0.58557764        6 
C       0.68010376      -0.39954398       1.01865600        6 
C      -0.97847882       1.53175101       0.11828246        6 
C      -0.13042465      -1.57559050       0.51156003        6 
O      -1.97460711       0.75183834       0.57969675        8 
O      -1.17202517       2.60103794      -0.41197807        8 
O      -0.78955880      -1.34434649      -0.63605645        8 
O      -0.06914925      -2.66860295       1.02822521        8 
C      -1.46064229      -2.47222778      -1.22107938        6 
C      -3.31319244       1.20299501       0.30806753        6 
C       1.62412142       1.49289994      -0.26621244        6 
C       1.69343104       0.59466304      -1.48750917        6 
C       2.03485824      -0.62922654      -1.07134961        6 
C       2.16724340      -0.57936889       0.44420785        6 
C       2.72562343       0.84943014       0.61210410        6 
H      -0.74257535      -3.25221794      -1.48092277        1 
H      -3.47765231       1.27680115      -0.76802193        1 
H       2.07817681      -1.53385648      -1.66379984        1 
H      -1.94733344      -2.08740930      -2.11479996        1 
H      -2.19650375      -2.88174088      -0.52752094        1 
H      -3.96577488       0.44933582       0.74350774        1 
H      -3.49055617       2.17770289       0.76530861        1 
H       2.69879531      -1.40299373       0.91613950        1 
H       1.67177376       2.56437843      -0.44520548        1 
H       3.72164832       0.95416270       0.17959910        1 
H       2.73104279       1.20688334       1.64593365        1 
H       1.40630784       0.89161615      -2.48732285        1 
H       0.46431286       1.65677776       1.51206206        1 
H       0.69949958      -0.49193891       2.10376774        1 
