29
Lattice="0.0 0.0 0.0 0.0 0.0 0.0 0.0 0.0 0.0" Properties=species:S:1:pos:R:3:Z:I:1 pbc="F F F"
C      -0.50353387       0.75479320      -1.01444557        6 
C      -0.95978339      -0.74412786      -0.79927378        6 
C       0.96779678       1.01939560      -0.75256014        6 
C       0.10699462      -1.73892782      -0.39911440        6 
O       1.20118994       1.77355813       0.33612923        8 
O       1.84513262       0.63641991      -1.49077260        8 
O       0.74353983      -1.39888711       0.74129884        8 
O       0.38402861      -2.72216735      -1.04224496        8 
C       1.82906112      -2.25779091       1.13466845        6 
C       2.58436465       2.03906109       0.63038481        6 
C      -1.56565093       1.55265786      -0.17070290        6 
C      -1.35245778       1.23518881       1.30186487        6 
C      -1.71835816      -0.03434573       1.49960431        6 
C      -2.19365237      -0.58816345       0.16664660        6 
C      -2.81966467       0.68822026      -0.44991802        6 
H       1.46774198      -3.26974793       1.32333811        1 
H       3.05060855       2.59251522      -0.18615343        1 
H      -1.59884782      -0.61760131       2.40208111        1 
H       2.22971108      -1.81830872       2.04576108        1 
H       2.58814991      -2.28687583       0.35155667        1 
H       2.57775130       2.63195619       1.54234387        1 
H       3.12444139       1.10349306       0.78249122        1 
H      -2.81319213      -1.48364103       0.20201062        1 
H      -1.61722208       2.60823104      -0.43396079        1 
H      -3.69600822       1.03011428       0.10196504        1 
H      -3.06523668       0.58914775      -1.51179679        1 
H      -0.87364022       1.89674057       2.00802109        1 
H      -0.63282215       0.98622345      -2.07394158        1 
H      -1.32876446      -1.12959318      -1.74989085        1 
