29
Lattice="0.0 0.0 0.0 0.0 0.0 0.0 0.0 0.0 0.0" Properties=species:S:1:pos:R:3:Z:I:1 pbc="F F F"
C      -0.68128420       0.62470182      -0.98841199        6 
C      -0.61168462      -0.93797333      -0.76017273        6 
C       0.53859764       1.43329669      -0.60127998        6 
C       0.59412070      -1.49259707      -0.02922499        6 
O       0.76269938       1.44034059       0.72947471        8 
O       1.25365464       1.99631414      -1.39459378        8 
O       1.73785969      -1.09740934      -0.62617885        8 
O       0.56207747      -2.24116344       0.91612693        8 
C       2.96205666      -1.57150202      -0.03853600        6 
C       1.95482047       2.11648952       1.16374875        6 
C      -2.04655522       0.99457641      -0.29130950        6 
C      -1.94157914       0.69439713       1.19602016        6 
C      -1.90498598      -0.63362730       1.34129759        6 
C      -1.97509030      -1.24647088      -0.04946115        6 
C      -2.88811857      -0.21889121      -0.75661045        6 
H       3.03177801      -1.25187975       1.00255396        1 
H       1.92351291       3.17041982       0.88389605        1 
H      -1.72380590      -1.19350917       2.24709908        1 
H       3.75774278      -1.12779505      -0.63261624        1 
H       3.00970542      -2.66073521      -0.08218955        1 
H       1.97305778       2.00551156       2.24584313        1 
H       2.83511908       1.65423325       0.71366897        1 
H      -2.25904468      -2.29596643      -0.10149657        1 
H      -2.40443147       1.98691532      -0.56431952        1 
H      -3.89984507      -0.20861073      -0.34883822        1 
H      -2.92941839      -0.33419886      -1.84451213        1 
H      -1.80377652       1.44096761       1.96508963        1 
H      -0.78657566       0.80708528      -2.05784023        1 
H      -0.59026840      -1.41333160      -1.74622772        1 
