29
Lattice="0.0 0.0 0.0 0.0 0.0 0.0 0.0 0.0 0.0" Properties=species:S:1:pos:R:3:Z:I:1 pbc="F F F"
C      -0.98358108      -0.54683201      -0.70339142        6 
C       0.56576709      -0.42692472      -0.86112374        6 
C      -1.76051759       0.59563300      -0.08870340        6 
C       1.27015933       0.60217437      -0.00381068        6 
O      -1.39137557       1.77420237      -0.63036426        8 
O      -2.71380938       0.46505302       0.64021989        8 
O       2.54299560       0.76372910      -0.43722393        8 
O       0.82268317       1.18188709       0.95358985        8 
C       3.35866859       1.66621094       0.33157192        6 
C      -2.07547271       2.93797159      -0.13645721        6 
C      -1.19626056      -1.95957815      -0.07142763        6 
C      -0.53183262      -1.97018909       1.29512530        6 
C       0.79152033      -1.94679472       1.10275053        6 
C       1.03417490      -1.88410649      -0.39951584        6 
C      -0.14810107      -2.74032288      -0.90108401        6 
H       2.94330012       2.67489318       0.30208329        1 
H      -1.88225003       3.05881039       0.93047474        1 
H       1.55994352      -1.83946768       1.85690460        1 
H       4.33961078       1.64264999      -0.13800796        1 
H       3.42067121       1.33561301       1.36963322        1 
H      -1.66364140       3.77586876      -0.69497542        1 
H      -3.15010880       2.85298680      -0.30502942        1 
H       2.03407925      -2.13575206      -0.74737054        1 
H      -2.23026456      -2.29523581      -0.11045191        1 
H      -0.06047334      -3.78448094      -0.59707533        1 
H      -0.30956676      -2.68155729      -1.98184153        1 
H      -1.06225636      -1.89145885       2.23368722        1 
H      -1.39079322      -0.58933700      -1.72168539        1 
H       0.85323907      -0.26417466      -1.89963104        1 
