29
Lattice="0.0 0.0 0.0 0.0 0.0 0.0 0.0 0.0 0.0" Properties=species:S:1:pos:R:3:Z:I:1 pbc="F F F"
C      -0.60937384       0.77702901      -0.80114542        6 
C      -0.34216133      -0.77384776      -0.74604989        6 
C       0.31064193       1.68003882       0.00174909        6 
C       0.83253931      -1.27757130       0.05838459        6 
O       1.31262892       2.13326400      -0.79358084        8 
O       0.23006013       1.94795709       1.17115774        8 
O       1.38949228      -2.34559925      -0.56785646        8 
O       1.21933008      -0.86606715       1.12232904        8 
C       2.47415593      -2.98636813       0.12698218        6 
C       2.31539918       2.93121671      -0.13824040        6 
C      -2.11581132       0.86688852      -0.33204726        6 
C      -2.17265381       0.44697733       1.12957749        6 
C      -1.94354571      -0.86879349       1.18151895        6 
C      -1.72776244      -1.34998852      -0.24073272        6 
C      -2.68010464      -0.40447620      -1.00676581        6 
H       3.30207735      -2.28973747       0.26833090        1 
H       2.79495200       2.35685865       0.65601611        1 
H      -1.79456293      -1.47065776       2.06738152        1 
H       2.77635013      -3.81558724      -0.50901885        1 
H       2.14367768      -3.34986362       1.10149823        1 
H       3.03244303       3.19173359      -0.91388603        1 
H       1.86936350       3.83062082       0.28951509        1 
H      -1.82493354      -2.41979789      -0.42217200        1 
H      -2.58331846       1.81866568      -0.58153955        1 
H      -3.72802010      -0.58003779      -0.75949785        1 
H      -2.54556433      -0.42907536      -2.09268765        1 
H      -2.25176902       1.12898987       1.96233945        1 
H      -0.53333993       1.09052001      -1.84281963        1 
H      -0.19069093      -1.13132272      -1.76520835        1 
