29
Lattice="0.0 0.0 0.0 0.0 0.0 0.0 0.0 0.0 0.0" Properties=species:S:1:pos:R:3:Z:I:1 pbc="F F F"
C      -0.34629532      -0.94841629       0.70471023        6 
C      -0.78751732       0.55217877       0.91572776        6 
C       0.92866744      -1.22378374      -0.06825001        6 
C       0.00579149       1.69204656       0.30565264        6 
O       1.94805337      -1.47928652       0.78227828        8 
O       1.04236750      -1.27227138      -1.26826338        8 
O       1.29588927       1.38468825       0.08488557        8 
O      -0.45478488       2.79291592       0.11722351        8 
C       2.11021513       2.42003406      -0.49582909        6 
C       3.22560896      -1.72223356       0.17145940        6 
C      -1.62465614      -1.56816197       0.02506192        6 
C      -1.82024878      -0.88533513      -1.32134359        6 
C      -2.22106095       0.36838807      -1.08532966        6 
C      -2.28196801       0.55048972       0.42144497        6 
C      -2.72201208      -0.86356404       0.85560006        6 
H       1.70425162       2.72033346      -1.46249100        1 
H       3.53149544      -0.85985643      -0.42321119        1 
H      -2.35772383       1.16322907      -1.80560256        1 
H       3.09638533       1.97779502      -0.61689212        1 
H       2.15355104       3.28673647       0.16494047        1 
H       3.91715713      -1.88385153       0.99560320        1 
H       3.18312379      -2.60237258      -0.47233055        1 
H      -2.85279046       1.40011591       0.78803506        1 
H      -1.61866904      -2.65767327       0.01714633        1 
H      -3.72816917      -1.10906595       0.51250730        1 
H      -2.64248833      -1.04205148       1.93235404        1 
H      -1.56107910      -1.32364709      -2.27366845        1 
H      -0.21466902      -1.39909298       1.68894592        1 
H      -0.76403733       0.76101964       1.99136227        1 
