29
Lattice="0.0 0.0 0.0 0.0 0.0 0.0 0.0 0.0 0.0" Properties=species:S:1:pos:R:3:Z:I:1 pbc="F F F"
C      -0.77976443       0.39799630       0.85308658        6 
C       0.77858110       0.49249071       0.81133420        6 
C      -1.40956352      -0.92889738       0.49287356        6 
C       1.51862425      -0.52032798      -0.03662145        6 
O      -2.63362828      -0.75576296      -0.05352641        8 
O      -0.91822992      -2.00997948       0.69689484        8 
O       2.77079732      -0.70171740       0.44824567        8 
O       1.11017423      -1.06504490      -1.02980884        8 
C       3.60056548      -1.61226649      -0.29586034        6 
C      -3.34438330      -1.95995034      -0.39714033        6 
C      -1.26652091       1.71001212       0.14802241        6 
C      -0.79200748       1.67683011      -1.29246357        6 
C       0.53554751       1.83090647      -1.28662437        6 
C       0.97748617       1.94097533       0.16512208        6 
C      -0.23563882       2.69086638       0.75716400        6 
H       3.16504477      -2.61276412      -0.28880111        1 
H      -3.51877368      -2.56880228       0.49167289        1 
H       1.20428209       1.73880063      -2.13147941        1 
H       4.56298033      -1.60927423       0.21125161        1 
H       3.70857813      -1.27709911      -1.32880374        1 
H      -4.28810726      -1.62713835      -0.82398694        1 
H      -2.77534520      -2.54047857      -1.12446900        1 
H       1.96985404       2.34963358       0.34661604        1 
H      -2.32148735       1.91994264       0.30847469        1 
H      -0.33102677       3.70207570       0.35862984        1 
H      -0.24673742       2.71928492       1.85093102        1 
H      -1.42025481       1.44525541      -2.14160315        1 
H      -1.05892282       0.50244898       1.91063642        1 
H       1.20364629       0.47852754       1.81339830        1 
