29
Lattice="0.0 0.0 0.0 0.0 0.0 0.0 0.0 0.0 0.0" Properties=species:S:1:pos:R:3:Z:I:1 pbc="F F F"
C      -0.80997290       0.43571605       0.72965668        6 
C       0.73309493       0.29585386       0.88520336        6 
C      -1.64845965      -0.78748955       0.42887370        6 
C       1.45149510      -0.74577746       0.04227664        6 
O      -2.84841800      -0.41832664      -0.08620664        8 
O      -1.34512165      -1.93140768       0.64168807        8 
O       2.78153375      -0.69200763       0.32300576        8 
O       0.98255034      -1.51825076      -0.74883693        8 
C       3.60830659      -1.62163948      -0.39851784        6 
C      -3.76601896      -1.49235972      -0.36233933        6 
C      -1.00684744       1.76678904      -0.06945684        6 
C      -0.29086582       1.64672352      -1.40422938        6 
C       1.02462805       1.65738818      -1.16275304        6 
C       1.20946037       1.73022564       0.34841615        6 
C       0.01279914       2.63266388       0.71178040        6 
H       3.32361877      -2.64843982      -0.16268361        1 
H      -4.01248831      -2.03102326       0.55434641        1 
H       1.82189895       1.49171265      -1.87538723        1 
H       4.62610191      -1.42139850      -0.07035886        1 
H       3.51349565      -1.46506304      -1.47452804        1 
H      -4.65274286      -1.01730781      -0.77694687        1 
H      -3.33058443      -2.18923130      -1.07981785        1 
H       2.19635894       2.01244745       0.70636472        1 
H      -2.04097109       2.10078618      -0.09894815        1 
H       0.11814824       3.63643733       0.29720597        1 
H      -0.19428166       2.69535288       1.78389413        1 
H      -0.78183240       1.47947012      -2.35357587        1 
H      -1.17088008       0.67382343       1.74146586        1 
H       1.02796681       0.15675413       1.92507814        1 
