29
Lattice="0.0 0.0 0.0 0.0 0.0 0.0 0.0 0.0 0.0" Properties=species:S:1:pos:R:3:Z:I:1 pbc="F F F"
C      -0.78224963       0.41417643       0.84178131        6 
C       0.77819093       0.45830311       0.82658621        6 
C      -1.45387757      -0.89570443       0.49481935        6 
C       1.50146390      -0.56867189      -0.01895964        6 
O      -2.66180508      -0.68724203      -0.07593468        8 
O      -1.00659023      -1.99003294       0.72596941        8 
O       2.77261834      -0.71644918       0.42837682        8 
O       1.06730068      -1.15422756      -0.97686907        8 
C       3.59047752      -1.63928584      -0.31355730        6 
C      -3.40995838      -1.87040606      -0.41269964        6 
C      -1.21671467       1.73327698       0.11845054        6 
C      -0.71155401       1.67855080      -1.31081371        6 
C       0.61921052       1.79786415      -1.27611825        6 
C       1.03191448       1.90251699       0.18511994        6 
C      -0.17246231       2.68839750       0.74594679        6 
H       3.16231775      -2.64214963      -0.27326948        1 
H      -3.61957579      -2.45884537       0.48217344        1 
H       1.30397001       1.68454638      -2.10563972        1 
H       4.56465563      -1.61830412       0.17014539        1 
H       3.67187982      -1.32766479      -1.35633222        1 
H      -4.33444749      -1.51082352      -0.85955774        1 
H      -2.85100874      -2.48192162      -1.12224478        1 
H       2.03138928       2.28295424       0.38689044        1 
H      -2.26866875       1.97329797       0.25431237        1 
H      -0.23037045       3.69977538       0.34047092        1 
H      -0.20817214       2.72374871       1.83897626        1 
H      -1.32689885       1.46044245      -2.17289869        1 
H      -1.07248540       0.54169109       1.89400177        1 
H       1.18893074       0.42666469       1.83431247        1 
