29
Lattice="0.0 0.0 0.0 0.0 0.0 0.0 0.0 0.0 0.0" Properties=species:S:1:pos:R:3:Z:I:1 pbc="F F F"
C       0.42001942       1.05804782       0.64951770        6 
C       0.71534470      -0.43463099       1.02201913        6 
C      -0.92485508       1.42492432       0.06931877        6 
C      -0.15274522      -1.55673319       0.49373819        6 
O      -1.92548477       0.92071926       0.82430204        8 
O      -1.10258398       2.19076147      -0.84616395        8 
O      -0.87316260      -1.22517757      -0.59326727        8 
O      -0.11644526      -2.67765704       0.94621051        8 
C      -1.63161342      -2.28164616      -1.20613875        6 
C      -3.26153723       1.21327794       0.38247839        6 
C       1.66948898       1.49950949      -0.17462770        6 
C       1.71399615       0.66451757      -1.44164453        6 
C       2.03643748      -0.58519788      -1.09234429        6 
C       2.18431298      -0.61504170       0.42125357        6 
C       2.76440013       0.79463496       0.66293888        6 
H      -0.97086081      -3.08543956      -1.53475611        1 
H      -3.43097105       0.79054594      -0.60968559        1 
H       2.05664622      -1.45939104      -1.73008039        1 
H      -2.12862915      -1.82296153      -2.05829370        1 
H      -2.36227079      -2.68320946      -0.50241310        1 
H      -3.91850048       0.74529764       1.11251070        1 
H      -3.43030723       2.29048014       0.34702853        1 
H       2.70620595      -1.46980058       0.84649167        1 
H       1.74037292       2.57729988      -0.30414038        1 
H       3.76095845       0.90995870       0.23416887        1 
H       2.77570011       1.09385494       1.71532697        1 
H       1.41825544       1.01953595      -2.41899614        1 
H       0.43890681       1.61562189       1.59374463        1 
H       0.75190927      -0.56769038       2.10284848        1 
