29
Lattice="0.0 0.0 0.0 0.0 0.0 0.0 0.0 0.0 0.0" Properties=species:S:1:pos:R:3:Z:I:1 pbc="F F F"
C      -0.56507844       0.64627143       0.96162862        6 
C       1.00845354       0.61055287       0.85497544        6 
C      -1.28937585      -0.62431568       0.56208290        6 
C       1.65368965      -0.71095137       0.48602382        6 
O      -2.44259452      -0.36466270      -0.08951819        8 
O      -0.93457520      -1.74046799       0.85365514        8 
O       1.42034174      -1.06760938      -0.79240887        8 
O       2.31804360      -1.36700621       1.25051942        8 
C       1.88148725      -2.37535135      -1.17513676        6 
C      -3.23518095      -1.51077372      -0.45247742        6 
C      -0.93926961       1.94056963       0.15085073        6 
C      -0.64995083       1.64229589      -1.31228524        6 
C       0.67697326       1.56772667      -1.45156944        6 
C       1.30019601       1.83465332      -0.09151900        6 
C       0.27327432       2.83811169       0.48745031        6 
H       2.95921671      -2.46226189      -1.03070698        1 
H      -3.50123448      -2.08809455       0.43393582        1 
H       1.22800637       1.26661173      -2.33087807        1 
H       1.62557028      -2.47607579      -2.22802486        1 
H       1.37159509      -3.13441900      -0.58007196        1 
H      -4.12492230      -1.10715247      -0.93090500        1 
H      -2.68353655      -2.14863641      -1.14472624        1 
H       2.34897897       2.12931081      -0.08939342        1 
H      -1.93150493       2.32338448       0.38023525        1 
H       0.25512002       3.78251449      -0.05820998        1 
H       0.40157132       3.02840702       1.55714171        1 
H      -1.40339702       1.41250364      -2.05235759        1 
H      -0.82996726       0.78496298       2.01539964        1 
H       1.42129126       0.83697918       1.83781474        1 
