29
Lattice="0.0 0.0 0.0 0.0 0.0 0.0 0.0 0.0 0.0" Properties=species:S:1:pos:R:3:Z:I:1 pbc="F F F"
C      -0.60315912       0.31765522       0.87104674        6 
C       0.89744413       0.69708099       0.67654622        6 
C      -1.15794795      -0.79340581       0.00433134        6 
C       1.86937538      -0.30353143       0.09224962        6 
O      -2.41597875      -1.09488378       0.41156714        8 
O      -0.61976126      -1.34346967      -0.92232896        8 
O       1.66260146      -1.53434769       0.60013048        8 
O       2.83458621      -0.00914571      -0.57127412        8 
C       2.53985634      -2.57164367       0.13022884        6 
C      -3.09404432      -2.11883047      -0.33777072        6 
C      -1.31755035       1.68198280       0.43413109        6 
C      -1.13763430       1.76952220      -1.07595625        6 
C       0.15720271       2.00257520      -1.31395656        6 
C       0.85950239       2.11549917       0.02773570        6 
C      -0.27556000       2.72631305       0.88620136        6 
H       2.44764949      -2.67694830      -0.95169630        1 
H      -2.54797620      -3.06154811      -0.27565538        1 
H       0.66010228       2.00390764      -2.27109361        1 
H       2.20787050      -3.47969008       0.62901910        1 
H       3.57645930      -2.34798445       0.38757621        1 
H      -4.07493172      -2.21438966       0.12301612        1 
H      -3.18887299      -1.82930027      -1.38562031        1 
H       1.82614160       2.61357746       0.02735703        1 
H      -2.33407410       1.76906753       0.81198987        1 
H      -0.54462935       3.73613543       0.57263447        1 
H      -0.07123035       2.71281468       1.96086351        1 
H      -1.90344864       1.53424723      -1.80366339        1 
H      -0.83335404       0.08874754       1.91128061        1 
H       1.30254897       0.83159082       1.68826796        1 
