29
Lattice="0.0 0.0 0.0 0.0 0.0 0.0 0.0 0.0 0.0" Properties=species:S:1:pos:R:3:Z:I:1 pbc="F F F"
C      -1.09206785      -0.28372644      -0.89389203        6 
C       0.39101373      -0.80061349      -0.89294263        6 
C      -1.40540148       1.13218860      -0.45462156        6 
C       1.47769098       0.21076003      -0.59867225        6 
O      -0.81476179       1.47732037       0.70309159        8 
O      -2.18431809       1.84623400      -1.04195393        8 
O       2.50972573      -0.35240980       0.06563248        8 
O       1.46525989       1.36529708      -0.94816145        8 
C       3.62172421       0.51498736       0.35546571        6 
C      -1.03036400       2.82934568       1.14113429        6 
C      -1.80146142      -1.37323325       0.01883873        6 
C      -1.24651325      -1.24040205       1.43005610        6 
C       0.01893234      -1.67134119       1.41073023        6 
C       0.33367273      -2.09802208      -0.01301649        6 
C      -1.04860136      -2.63882549      -0.45105911        6 
H       4.06429094       0.89090260      -0.56821897        1 
H      -2.09538926       3.02772332       1.26857101        1 
H       0.74317319      -1.62048341       2.21183798        1 
H       4.33436820      -0.10055366       0.90002943        1 
H       3.29518175       1.35787619       0.96602938        1 
H      -0.50576553       2.91346691       2.09055844        1 
H      -0.61534625       3.52628723       0.41156310        1 
H       1.19572091      -2.74760883      -0.14702874        1 
H      -2.88578434      -1.36149224      -0.08273418        1 
H      -1.34434280      -3.53063816       0.10305742        1 
H      -1.13157700      -2.82513559      -1.52632526        1 
H      -1.76364576      -0.76558722       2.25219088        1 
H      -1.50517982      -0.35752328      -1.89897708        1 
H       0.61564074      -1.10998844      -1.92163158        1 
