29
Lattice="0.0 0.0 0.0 0.0 0.0 0.0 0.0 0.0 0.0" Properties=species:S:1:pos:R:3:Z:I:1 pbc="F F F"
C      -0.75289750       0.48722723      -0.99536473        6 
C      -0.38430464      -1.02070120      -0.69186190        6 
C       0.18998498       1.60226252      -0.59804813        6 
C       0.89978899      -1.29337889       0.06822125        6 
O       0.68647111       1.45929171       0.64120783        8 
O       0.44776755       2.54159660      -1.31570821        8 
O       1.92736732      -1.42004489      -0.80798173        8 
O       1.04353767      -1.36115505       1.26173897        8 
C       3.23018292      -1.61113676      -0.22851910        6 
C       1.58121197       2.48616367       1.10189016        6 
C      -2.19928696       0.61758524      -0.36656745        6 
C      -2.07852938       0.46625873       1.13805555        6 
C      -1.76492592      -0.80804113       1.39121476        6 
C      -1.67522607      -1.53234190       0.05660654        6 
C      -2.75934359      -0.77381548      -0.74249911        6 
H       3.48987143      -0.76476293       0.40960417        1 
H       1.05754235       3.44030998       1.18209135        1 
H      -1.49252772      -1.23973263       2.34239921        1 
H       3.91540841      -1.68091781      -1.07049676        1 
H       3.25465143      -2.52675854       0.36427968        1 
H       1.92154459       2.15093746       2.07904940        1 
H       2.42120551       2.59739007       0.41462849        1 
H      -1.74447766      -2.61919921       0.09038022        1 
H      -2.73222249       1.49313054      -0.73496292        1 
H      -3.76265587      -0.93874950      -0.34750780        1 
H      -2.74407172      -0.97968704      -1.81725508        1 
H      -2.11337166       1.28307798       1.84569460        1 
H      -0.85024453       0.60105372      -2.07547201        1 
H      -0.29204825      -1.53204298      -1.65114156        1 
