29
Lattice="0.0 0.0 0.0 0.0 0.0 0.0 0.0 0.0 0.0" Properties=species:S:1:pos:R:3:Z:I:1 pbc="F F F"
C      -0.72791809       0.89783470       0.62857433        6 
C       0.60963124       0.14234188       0.93018005        6 
C      -1.87662331       0.16063867      -0.02298841        6 
C       0.89215774      -1.10078060       0.09974421        6 
O      -2.22869816      -0.91183885       0.71216624        8 
O      -2.52125152       0.57479731      -0.95636849        8 
O       2.20383605      -1.42721575       0.19414234        8 
O       0.09861786      -1.77557489      -0.50561978        8 
C       2.60562556      -2.61983580      -0.50408115        6 
C      -3.28652558      -1.72578225       0.17988317        6 
C      -0.27118195       2.22147484      -0.04872044        6 
C       0.48909524       1.87291076      -1.31719850        6 
C       1.66018945       1.33640284      -0.95443975        6 
C       1.67816524       1.26882625       0.56957901        6 
C       0.90527804       2.56390311       0.89799348        6 
H       2.07264380      -3.48888275      -0.11488412        1 
H      -2.98105510      -2.14909224      -0.77830398        1 
H       2.40925310       0.89605035      -1.59894340        1 
H       3.67446218      -2.71437736      -0.32490735        1 
H       2.40119810      -2.52412091      -1.57165025        1 
H      -3.44078494      -2.51644674       0.91109576        1 
H      -4.19754437      -1.13980681       0.04828584        1 
H       2.64686867       1.11293166       1.03734709        1 
H      -1.07286750       2.94948068      -0.15265358        1 
H       1.44980963       3.45672950       0.58730365        1 
H       0.61217980       2.65655474       1.94802428        1 
H       0.08562638       1.96388080      -2.31621558        1 
H      -1.14455317       1.16947168       1.60591136        1 
H       0.67586788      -0.14840702       1.98066070        1 
