29
Lattice="0.0 0.0 0.0 0.0 0.0 0.0 0.0 0.0 0.0" Properties=species:S:1:pos:R:3:Z:I:1 pbc="F F F"
C       0.52134470       1.00365599       0.73414498        6 
C       0.72492726      -0.53571048       0.99745709        6 
C      -0.75278725       1.42230803       0.03395578        6 
C      -0.33421483      -1.51791185       0.55430978        6 
O      -1.82657071       1.11994451       0.79921209        8 
O      -0.83203915       1.97951379      -1.03188518        8 
O      -0.84344501      -1.23454621      -0.66035699        8 
O      -0.66333893      -2.48399561       1.20194600        8 
C      -1.84586078      -2.13623888      -1.15973158        6 
C      -3.11299857       1.39901904       0.22126883        6 
C       1.83251091       1.41144940      -0.02136924        6 
C       1.80971558       0.72765490      -1.37823323        6 
C       1.99015192      -0.58076514      -1.17284010        6 
C       2.13735037      -0.79658309       0.32254327        6 
C       2.85100372       0.51541026       0.72081261        6 
H      -1.43249631      -3.13878741      -1.28049428        1 
H      -3.22877730       0.85837413      -0.71982434        1 
H       1.91641274      -1.37213148      -1.90655374        1 
H      -2.14694284      -1.72783154      -2.12210777        1 
H      -2.69425478      -2.17984403      -0.47478806        1 
H      -3.84125954       1.05567925       0.95294795        1 
H      -3.22878544       2.46814414       0.03689004        1 
H       2.58478624      -1.73590358       0.64404267        1 
H       2.00972985       2.48545605      -0.02723566        1 
H       3.85505493       0.58601650       0.29981330        1 
H       2.88920575       0.68519829       1.80133427        1 
H       1.55705220       1.21866975      -2.30637176        1 
H       0.49479540       1.49707881       1.71013602        1 
H       0.82742201      -0.70890891       2.06825407        1 
