29
Lattice="0.0 0.0 0.0 0.0 0.0 0.0 0.0 0.0 0.0" Properties=species:S:1:pos:R:3:Z:I:1 pbc="F F F"
C      -0.28199196       0.87348972       0.79942976        6 
C       1.04865401       0.05488370       0.95023096        6 
C      -1.60195574       0.15320145       0.63176415        6 
C       1.24137018      -1.31476865       0.30913466        6 
O      -2.39471184       0.78119375      -0.26855757        8 
O      -1.94101130      -0.82917510       1.24046674        8 
O       0.13117053      -1.87148524      -0.18617752        8 
O       2.34015476      -1.80854655       0.18741267        8 
C       0.28681710      -3.14059095      -0.84495206        6 
C      -3.69978648       0.20686158      -0.46444865        6 
C       0.09822821       2.04920114      -0.15759607        6 
C       0.55621938       1.46079062      -1.48093246        6 
C       1.74106743       0.87523716      -1.27499634        6 
C       2.07344400       1.02547036       0.20597584        6 
C       1.46361792       2.41392746       0.47416794        6 
H       0.91304585      -3.03524189      -1.73272438        1 
H      -4.26677378       0.21642493       0.46782565        1 
H       2.31011722       0.27562090      -1.97261100        1 
H      -0.72065841      -3.44675729      -1.11757796        1 
H       0.73977960      -3.86733821      -0.16971600        1 
H      -4.18257451       0.83183917      -1.21278913        1 
H      -3.61388472      -0.82116777      -0.81966013        1 
H       3.10681684       0.84893647       0.49139986        1 
H      -0.66150817       2.82571296      -0.20955861        1 
H       1.98430168       3.20252574      -0.07138612        1 
H       1.40047064       2.67820618       1.53369377        1 
H      -0.03699453       1.44635282      -2.38527791        1 
H      -0.42941889       1.34009803       1.78376328        1 
H       1.31789053      -0.05247540       2.00228295        1 
