29
Lattice="0.0 0.0 0.0 0.0 0.0 0.0 0.0 0.0 0.0" Properties=species:S:1:pos:R:3:Z:I:1 pbc="F F F"
C      -0.80035158       0.61236378       0.90166430        6 
C       0.75085201       0.40045418       0.94315012        6 
C      -1.65449975      -0.61182163       0.64304523        6 
C       1.29086323      -0.79112447       0.17169227        6 
O      -2.39769458      -0.49276368      -0.47572246        8 
O      -1.68589715      -1.57108150       1.37245297        8 
O       2.64374865      -0.73267151       0.12992226        8 
O       0.65958384      -1.69220610      -0.31739762        8 
C       3.29739573      -1.81270561      -0.56132037        6 
C      -3.19431112      -1.64167728      -0.82008187        6 
C      -0.97282068       1.89102675       0.01951109        6 
C      -0.38701166       1.61908423      -1.35550264        6 
C       0.94303700       1.56025431      -1.22792364        6 
C       1.26486946       1.74060904       0.25089620        6 
C       0.16016936       2.74329406       0.64256995        6 
H       3.08129716      -2.76452702      -0.07358526        1 
H      -3.92871120      -1.84689888      -0.03945270        1 
H       1.66338233       1.28734832      -1.98789193        1 
H       4.36052152      -1.58810090      -0.51068063        1 
H       2.96310683      -1.85954483      -1.59916370        1 
H      -3.68974518      -1.38201197      -1.75331483        1 
H      -2.55307101      -2.51408565      -0.95126256        1 
H       2.29417050       1.98621934       0.49981287        1 
H      -1.98188244       2.29846051       0.04153749        1 
H       0.28597115       3.70722017       0.14680416        1 
H       0.05461144       2.89205690       1.72108424        1 
H      -0.97270722       1.40855083      -2.23923821        1 
H      -1.08974828       0.89270957       1.92028977        1 
H       1.11587389       0.32490983       1.96875013        1 
