29
Lattice="0.0 0.0 0.0 0.0 0.0 0.0 0.0 0.0 0.0" Properties=species:S:1:pos:R:3:Z:I:1 pbc="F F F"
C      -0.72693988       0.54182247      -0.99539030        6 
C      -0.51997403      -0.99895381      -0.72839146        6 
C       0.34668814       1.51470447      -0.56211101        6 
C       0.74996064      -1.40484454      -0.01017156        6 
O       0.81752280       1.26069374       0.67384380        8 
O       0.72844854       2.43914781      -1.24061344        8 
O       1.82363579      -1.15619051      -0.79488699        8 
O       0.82884847      -1.89766928       1.08665623        8 
C       3.10892708      -1.43151126      -0.21250930        6 
C       1.84655572       2.13911048       1.16007649        6 
C      -2.14226749       0.80236417      -0.33164481        6 
C      -2.01045133       0.59040214       1.16663933        6 
C      -1.83102061      -0.71743180       1.37624624        6 
C      -1.83869931      -1.40425860       0.01875808        6 
C      -2.85064852      -0.51129758      -0.73645359        6 
H       3.23659739      -0.85839334       0.70745545        1 
H       1.47201222       3.16106419       1.23644646        1 
H      -1.59175335      -1.20900322       2.30739177        1 
H       3.83801117      -1.12711220      -0.96021872        1 
H       3.20909257      -2.49473204       0.01144806        1 
H       2.11380976       1.75340232       2.14143715        1 
H       2.70740779       2.12415288       0.48945249        1 
H      -2.01752801      -2.47834085       0.02238244        1 
H      -2.58887714       1.74015717      -0.65920014        1 
H      -3.86000033      -0.58386981      -0.32878453        1 
H      -2.87464933      -0.68337761      -1.81723405        1 
H      -1.95028879       1.38417242       1.89858734        1 
H      -0.82415296       0.70721026      -2.06819943        1 
H      -0.48299450      -1.49529272      -1.70211513        1 
