29
Lattice="0.0 0.0 0.0 0.0 0.0 0.0 0.0 0.0 0.0" Properties=species:S:1:pos:R:3:Z:I:1 pbc="F F F"
C      -0.79794813       0.38878391       0.75645309        6 
C       0.75903387       0.36915057       0.83482706        6 
C      -1.54211847      -0.87721376       0.39279467        6 
C       1.52234489      -0.62918720      -0.01362536        6 
O      -2.82137473      -0.57858789       0.05283848        8 
O      -1.11149266      -1.99988110       0.41774455        8 
O       2.78613332      -0.74987444       0.47080718        8 
O       1.13289911      -1.21953770      -0.98551806        8 
C       3.64716492      -1.64454598      -0.25566487        6 
C      -3.65961250      -1.69932576      -0.28239884        6 
C      -1.14131370       1.73363051       0.02825882        6 
C      -0.53440258       1.69452126      -1.36150959        6 
C       0.79331167       1.77465765      -1.22642561        6 
C       1.09928282       1.83022922       0.26433805        6 
C      -0.11817123       2.64143458       0.75276591        6 
H       3.24251556      -2.65794491      -0.23950836        1 
H      -3.75441299      -2.37652189       0.56822567        1 
H       1.53464950       1.66269220      -2.00613939        1 
H       4.60590679      -1.60639078       0.25709775        1 
H       3.75230698      -1.32004028      -1.29243667        1 
H      -4.62634155      -1.27139015      -0.53956634        1 
H      -3.24232126      -2.24560963      -1.12951937        1 
H       2.09211966       2.17382742       0.54777005        1 
H      -2.19309265       2.00016931       0.09664601        1 
H      -0.11385548       3.66166561       0.36575079        1 
H      -0.23668295       2.65776406       1.84008258        1 
H      -1.08972958       1.51592282      -2.27248175        1 
H      -1.13517097       0.54028261       1.79204687        1 
H       1.10732063       0.28360450       1.86287226        1 
