29
Lattice="0.0 0.0 0.0 0.0 0.0 0.0 0.0 0.0 0.0" Properties=species:S:1:pos:R:3:Z:I:1 pbc="F F F"
C      -0.79764645       0.26345935       0.74137241        6 
C       0.75966669       0.45405756       0.76991197        6 
C      -1.44098391      -0.89889957       0.01735593        6 
C       1.68145754      -0.43819023      -0.04067128        6 
O      -2.65068135      -1.14652061       0.59468131        8 
O      -1.03983402      -1.50959903      -0.93656775        8 
O       2.62870224      -0.97319483       0.77836097        8 
O       1.63944709      -0.66263501      -1.22003027        8 
C       3.58245717      -1.83935059       0.13866212        6 
C      -3.44355420      -2.17146728      -0.02879893        6 
C      -1.32471878       1.66176176       0.21280899        6 
C      -0.84952276       1.81474114      -1.21757928        6 
C       0.47515311       1.99154625      -1.18420747        6 
C       0.90629315       1.96064574       0.27223992        6 
C      -0.33292201       2.59304988       0.94167853        6 
H       3.07411229      -2.68444344      -0.32855574        1 
H      -2.92271512      -3.12999916      -0.00005808        1 
H       1.14938053       2.01297667      -2.02797840        1 
H       4.24487744      -2.17994444       0.93180308        1 
H       4.14423001      -1.29662630      -0.62371765        1 
H      -4.36372747      -2.21957630       0.54996303        1 
H      -3.65705344      -1.91335601      -1.06756896        1 
H       1.88116890       2.38817140       0.50271222        1 
H      -2.38771483       1.80302148       0.40066352        1 
H      -0.46565757       3.63952308       0.66318435        1 
H      -0.35000499       2.49115790       2.03061510        1 
H      -1.46355585       1.66233902      -2.09487217        1 
H      -1.13206872       0.17457150       1.77672157        1 
H       1.09074581       0.39378149       1.80572724        1 
