29
Lattice="0.0 0.0 0.0 0.0 0.0 0.0 0.0 0.0 0.0" Properties=species:S:1:pos:R:3:Z:I:1 pbc="F F F"
C      -0.67687279       0.92023700       0.71394465        6 
C       0.67536152       0.14862055       0.91698743        6 
C      -1.78857644       0.21496167      -0.03519082        6 
C       0.84906028      -1.14738727       0.15009714        6 
O      -2.37997032      -0.70155076       0.75889626        8 
O      -2.16416741       0.47990327      -1.15020168        8 
O       2.12548247      -1.58110219       0.26136987        8 
O       0.00291971      -1.75199587      -0.45967597        8 
C       2.43316277      -2.81723609      -0.40993822        6 
C      -3.35953717      -1.54076816       0.12322776        6 
C      -0.21707342       2.26537848       0.06338276        6 
C       0.41740827       1.94025964      -1.28059066        6 
C       1.59067969       1.34401815      -1.04140481        6 
C       1.74372309       1.22984499       0.46809388        6 
C       1.04824153       2.53264911       0.91311211        6 
H       1.82621998      -3.63095923      -0.00973685        1 
H      -2.89115018      -2.10376904      -0.68536149        1 
H       2.25601869       0.89026916      -1.76420799        1 
H       3.48865729      -2.99587928      -0.21706622        1 
H       2.24757090      -2.72613855      -1.48126848        1 
H      -3.71635788      -2.21248940       0.90126388        1 
H      -4.18054157      -0.94232875      -0.27450149        1 
H       2.74274405       1.02733528       0.84633353        1 
H      -0.99529895       3.02690622       0.05395922        1 
H       1.59078199       3.42210029       0.58934860        1 
H       0.85353627       2.58762872       1.98852888        1 
H      -0.07325807       2.07090527      -2.23384070        1 
H      -1.08057936       1.13080033       1.70760190        1 
H       0.81592152      -0.09557270       1.97337572        1 
