29
Lattice="0.0 0.0 0.0 0.0 0.0 0.0 0.0 0.0 0.0" Properties=species:S:1:pos:R:3:Z:I:1 pbc="F F F"
C       0.88315502      -0.68831937      -0.80137039        6 
C       0.52375754       0.84235112      -0.92519243        6 
C      -0.08364127      -1.81624176      -0.50307745        6 
C      -0.83842989       1.46626260      -0.68370933        6 
O      -1.13294143      -1.49746028       0.26368835        8 
O       0.12556270      -2.94106080      -0.90212064        8 
O      -1.41287614       1.15686066       0.48633383        8 
O      -1.29422493       2.30087010      -1.43597259        8 
C      -2.66038876       1.81193265       0.76980483        6 
C      -2.03119333      -2.57464790       0.58691420        6 
C       2.09719795      -0.68482680       0.21838506        6 
C       1.57000855      -0.22519004       1.56412672        6 
C       1.28212536       1.07629669       1.45986748        6 
C       1.60485414       1.50609271       0.03869672        6 
C       2.81621524       0.59529198      -0.25645790        6 
H      -2.53121167       2.89520829       0.79666770        1 
H      -1.51595654      -3.34182829       1.16703002        1 
H       0.78880893       1.69591458       2.19516365        1 
H      -2.96768728       1.43680517       1.74387815        1 
H      -3.40360003       1.56210005       0.01071870        1 
H      -2.82536465      -2.11838788       1.17404141        1 
H      -2.43243937      -3.02416191      -0.32245452        1 
H       1.71910160       2.57472147      -0.13746458        1 
H       2.65376525      -1.62007481       0.19751673        1 
H       3.68147093       0.84159368       0.36092357        1 
H       3.10706169       0.57207197      -1.31052234        1 
H       1.35745297      -0.87697070       2.40087190        1 
H       1.29809708      -0.98705596      -1.76581304        1 
H       0.75797944       1.14711504      -1.94486670        1 
