29
Lattice="0.0 0.0 0.0 0.0 0.0 0.0 0.0 0.0 0.0" Properties=species:S:1:pos:R:3:Z:I:1 pbc="F F F"
C      -0.65204679       0.85017443       0.68712313        6 
C       0.77260294       0.27299640       1.03648735        6 
C      -1.54469636      -0.06352477      -0.12198700        6 
C       0.96736800      -1.17773317       0.64264069        6 
O      -2.75868292      -0.18303528       0.45546006        8 
O      -1.25229393      -0.59241705      -1.16739451        8 
O       1.98902553      -1.37172807      -0.20780857        8 
O       0.29172436      -2.07478732       1.09017073        8 
C       2.17935193      -2.72606172      -0.66054745        6 
C      -3.69869208      -1.03546565      -0.22519155        6 
C      -0.28783308       2.18836226      -0.06742924        6 
C       0.40282823       1.82702979      -1.37107230        6 
C       1.60954026       1.34032189      -1.06728550        6 
C       1.74484930       1.35671787       0.44594239        6 
C       0.93063978       2.63127760       0.77542996        6 
H       2.36563977      -3.39055327       0.18420530        1 
H      -3.31245773      -2.05434199      -0.27786767        1 
H       2.32156428       0.88810726      -1.74183009        1 
H       3.04283339      -2.69154832      -1.32121708        1 
H       1.29388341      -3.06404908      -1.20045336        1 
H      -4.60671628      -0.99988361       0.37271691        1 
H      -3.88783834      -0.66812349      -1.23505308        1 
H       2.75691135       1.28793635       0.84140363        1 
H      -1.12991168       2.87646632      -0.13624262        1 
H       1.39644191       3.53828206       0.38757183        1 
H       0.70814977       2.75325608       1.84005313        1 
H      -0.06781846       1.84778032      -2.34391960        1 
H      -1.18166045       1.09643944       1.60618516        1 
H       0.86404018       0.26862052       2.12631924        1 
