29
Lattice="0.0 0.0 0.0 0.0 0.0 0.0 0.0 0.0 0.0" Properties=species:S:1:pos:R:3:Z:I:1 pbc="F F F"
C      -0.08377937       0.87480802       0.98272645        6 
C       1.20059426      -0.03266977       0.84266819        6 
C      -1.39905587       0.19229342       0.66459558        6 
C       0.99315704      -1.47514468       0.43303752        6 
O      -2.16987338       0.91220430      -0.17456228        8 
O      -1.75290382      -0.85286064       1.15544329        8 
O       0.38572544      -1.59656128      -0.76516890        8 
O       1.34070445      -2.41890393       1.10021242        8 
C       0.04165812      -2.93554847      -1.16347505        6 
C      -3.44824165       0.33760578      -0.50501890        6 
C       0.29722176       2.14816758       0.14564394        6 
C       0.36561091       1.73608953      -1.31594496        6 
C       1.43767071       0.95316575      -1.46441916        6 
C       2.11339881       0.83482248      -0.10844337        6 
C       1.80660396       2.23724816       0.47088441        6 
H       0.93364687      -3.56024914      -1.22743175        1 
H      -4.05320331       0.20607464       0.39323638        1 
H       1.72555944       0.39737937      -2.34569259        1 
H      -0.42763256      -2.83530064      -2.14008955        1 
H      -0.65437954      -3.36874046      -0.44368432        1 
H      -3.91722370       1.04585686      -1.18449321        1 
H      -3.31272079      -0.62987173      -0.99074236        1 
H       3.15199759       0.50621920      -0.10962067        1 
H      -0.31910335       3.01601246       0.37337572        1 
H       2.30572253       3.03520952      -0.08063496        1 
H       2.02686043       2.32886475       1.53872261        1 
H      -0.39910651       1.94769659      -2.04924233        1 
H      -0.17758102       1.15159514       2.03758343        1 
H       1.68965210      -0.09984582       1.81378649        1 
