29
Lattice="0.0 0.0 0.0 0.0 0.0 0.0 0.0 0.0 0.0" Properties=species:S:1:pos:R:3:Z:I:1 pbc="F F F"
C       0.15708837       0.91685886       0.96478412        6 
C       1.13233774      -0.31495655       0.86693225        6 
C      -1.30990198       0.61289808       0.74670340        6 
C       0.60099045      -1.64800963       0.38897436        6 
O      -1.84486430       1.29905654      -0.28162450        8 
O      -1.94875600      -0.12677045       1.45649541        8 
O      -0.32423694      -1.53380113      -0.58416503        8 
O       1.00229945      -2.71010382       0.80173664        8 
C      -0.88947036      -2.76287174      -1.07254625        6 
C      -3.23658611       1.04844838      -0.54717138        6 
C       0.84830502       1.99025674       0.05342086        6 
C       0.83297576       1.48288183      -1.37841532        6 
C       1.68370924       0.45489190      -1.45401323        6 
C       2.27908508       0.25075742      -0.07203776        6 
C       2.32531614       1.71437509       0.42327650        6 
H      -0.11438490      -3.39322308      -1.51104398        1 
H      -3.84751486       1.32293657       0.31405712        1 
H       1.83634177      -0.20730034      -2.29579164        1 
H      -1.61476572      -2.46779609      -1.82804431        1 
H      -1.37786132      -3.30250664      -0.26019942        1 
H      -3.48441343       1.66761423      -1.40670279        1 
H      -3.39248703      -0.00711924      -0.77466012        1 
H       3.19363239      -0.33725745      -0.01382074        1 
H       0.47016533       2.99884331       0.21127209        1 
H       3.02342176       2.32448449      -0.15176398        1 
H       2.54037581       1.81042005       1.49179060        1 
H       0.15162765       1.82741369      -2.14273328        1 
H       0.19439494       1.26790970       2.00033790        1 
H       1.56254360      -0.52354737       1.84587556        1 
