29
Lattice="0.0 0.0 0.0 0.0 0.0 0.0 0.0 0.0 0.0" Properties=species:S:1:pos:R:3:Z:I:1 pbc="F F F"
C      -0.75226941       0.68032451       0.74423197        6 
C       0.77259777       0.41661222       1.02808903        6 
C      -1.48204487      -0.38708170      -0.03612015        6 
C       1.24984902      -0.97808482       0.67433566        6 
O      -2.75505719      -0.50578363       0.40130887        8 
O      -1.03595618      -1.02386066      -0.95938829        8 
O       2.17771373      -0.99491456      -0.29763229        8 
O       0.86480650      -1.96842226       1.24979386        8 
C       2.60488876      -2.29894837      -0.73507529        6 
C      -3.57370468      -1.46619732      -0.29211258        6 
C      -0.70785767       2.05869483      -0.03996139        6 
C      -0.03813139       1.80450616      -1.37905699        6 
C       1.25422787       1.56057439      -1.14408560        6 
C       1.47421040       1.64816125       0.35615039        6 
C       0.44835768       2.74943319       0.71855073        6 
H       3.05536854      -2.85261507       0.08989287        1 
H      -3.14022693      -2.46373586      -0.20843617        1 
H       1.99738402       1.23166568      -1.85518632        1 
H       3.33544127      -2.11546501      -1.52002271        1 
H       1.75209633      -2.85608960      -1.12490113        1 
H      -4.54388400      -1.42688117       0.19828752        1 
H      -3.66503588      -1.20060471      -1.34663141        1 
H       2.50197070       1.79025560       0.68616463        1 
H      -1.67383130       2.56153614      -0.06142547        1 
H       0.70354352       3.71960937       0.28987076        1 
H       0.26998672       2.85199730       1.79324765        1 
H      -0.55948734       1.70955824      -2.32180986        1 
H      -1.28692371       0.82830870       1.68192462        1 
H       0.91310495       0.47858884       2.11055842        1 
