29
Lattice="0.0 0.0 0.0 0.0 0.0 0.0 0.0 0.0 0.0" Properties=species:S:1:pos:R:3:Z:I:1 pbc="F F F"
C      -0.78312829       0.30293251       0.75229439        6 
C       0.78591457       0.31185972       0.75627343        6 
C      -1.60999391      -0.73305558       0.01908784        6 
C       1.62464928      -0.70772040       0.01235188        6 
O      -2.77841972      -0.90232873       0.70618067        8 
O      -1.37460437      -1.30595962      -1.00864136        8 
O       2.78099035      -0.90018213       0.71229370        8 
O       1.40103908      -1.25508309      -1.03197632        8 
C       3.73782199      -1.78120665       0.10004195        6 
C      -3.73704982      -1.78431121       0.09872333        6 
C      -1.13337255       1.75224935       0.19347191        6 
C      -0.66909474       1.78952710      -1.24972886        6 
C       0.66780522       1.80057526      -1.24315419        6 
C       1.11761025       1.76936559       0.20486042        6 
C      -0.01775148       2.57171998       0.87228190        6 
H       3.30875611      -2.77468448      -0.04056495        1 
H      -3.31515115      -2.78278414      -0.02653687        1 
H       1.32301902       1.70180383      -2.09750831        1 
H       4.57929697      -1.82137384       0.78863616        1 
H       4.05429761      -1.39104577      -0.86918746        1 
H      -4.58357581      -1.80928645       0.78196448        1 
H      -4.04483474      -1.40373292      -0.87722169        1 
H       2.14325238       2.07138660       0.41014911        1 
H      -2.16585643       2.03767816       0.38846311        1 
H      -0.02447137       3.61768931       0.56153370        1 
H      -0.02348174       2.50605653       1.96391514        1 
H      -1.31457309       1.68034658      -2.11038021        1 
H      -1.11485891       0.26618846       1.79039760        1 
H       1.11472572       0.27103726       1.79492487        1 
