29
Lattice="0.0 0.0 0.0 0.0 0.0 0.0 0.0 0.0 0.0" Properties=species:S:1:pos:R:3:Z:I:1 pbc="F F F"
C      -0.71774052       0.22929395       0.88819340        6 
C       0.82210569       0.40595728       0.68985829        6 
C      -1.47908858      -0.82590363       0.09160750        6 
C       1.72527198      -0.76514698       0.35695419        6 
O      -2.81400850      -0.57643424       0.22906839        8 
O      -1.06306900      -1.77495051      -0.51208682        8 
O       2.93387421      -0.29868406      -0.05923503        8 
O       1.47816447      -1.93543271       0.46135878        8 
C       3.92039112      -1.30467824      -0.35005800        6 
C      -3.69407973      -1.50865967      -0.41994674        6 
C      -1.23740768       1.65739285       0.38173332        6 
C      -1.09970151       1.58471151      -1.13589620        6 
C       0.20720880       1.60435770      -1.42034496        6 
C       0.96089185       1.74634456      -0.10923415        6 
C      -0.05260430       2.58739614       0.70413871        6 
H       4.13810877      -1.89720408       0.54031716        1 
H      -3.54794538      -2.51532579      -0.02455418        1 
H       0.67023393       1.45459740      -2.38664526        1 
H       4.80518281      -0.75934565      -0.67203460        1 
H       3.56790699      -1.96818826      -1.14133861        1 
H      -4.70097237      -1.15625235      -0.20472738        1 
H      -3.51542358      -1.52098841      -1.49673436        1 
H       1.98586081       2.10172261      -0.17091987        1 
H      -2.21857970       1.91786782       0.76843878        1 
H      -0.19664515       3.58794508       0.29322074        1 
H       0.18898516       2.65694752       1.76864440        1 
H      -1.91808624       1.40982005      -1.82169741        1 
H      -0.96465727       0.07699657       1.94026072        1 
H       1.19728608       0.65699419       1.69309498        1 
