29
Lattice="0.0 0.0 0.0 0.0 0.0 0.0 0.0 0.0 0.0" Properties=species:S:1:pos:R:3:Z:I:1 pbc="F F F"
C      -0.79983990       0.49526599       0.80754989        6 
C       0.74944530       0.35076363       0.90437131        6 
C      -1.61746446      -0.74778899       0.53394801        6 
C       1.39780355      -0.73759979       0.06647865        6 
O      -2.69757356      -0.47019323      -0.23165669        8 
O      -1.37452425      -1.84313874       0.97089765        8 
O       2.74091701      -0.70955649       0.26191581        8 
O       0.85928555      -1.52608820      -0.66454641        8 
C       3.49907558      -1.68787303      -0.47164599        6 
C      -3.55839372      -1.58691242      -0.52450566        6 
C      -1.01733425       1.80534601      -0.01560715        6 
C      -0.36448282       1.64173104      -1.37770418        6 
C       0.96076763       1.64523356      -1.19675859        6 
C       1.21510946       1.75911340       0.30166285        6 
C       0.04381473       2.68215828       0.69533256        6 
H       3.19282623      -2.69686563      -0.19083572        1 
H      -3.96785864      -2.00636062       0.39588752        1 
H       1.72330185       1.45135578      -1.93972467        1 
H       4.53817112      -1.51303050      -0.20110822        1 
H       3.35464292      -1.55801647      -1.54571386        1 
H      -4.35328090      -1.18397859      -1.14873813        1 
H      -3.00397059      -2.36109187      -1.05653806        1 
H       2.21993078       2.04225106       0.60563654        1 
H      -2.04816476       2.15199756      -0.01042889        1 
H       0.13789719       3.67436610       0.25119840        1 
H      -0.11224634       2.77304445       1.77416726        1 
H      -0.90057347       1.45352616      -2.29803979        1 
H      -1.12850576       0.74011740       1.82745736        1 
H       1.08840878       0.23974892       1.93416176        1 
