29
Lattice="0.0 0.0 0.0 0.0 0.0 0.0 0.0 0.0 0.0" Properties=species:S:1:pos:R:3:Z:I:1 pbc="F F F"
C      -0.79702849       0.60413750       0.96608277        6 
C       0.76425026       0.48453908       0.87225479        6 
C      -1.58718825      -0.65813952       0.67970649        6 
C       1.31640432      -0.72568651       0.15232158        6 
O      -2.20627141      -0.63612348      -0.51395361        8 
O      -1.69454512      -1.56050226       1.47516394        8 
O       2.66706722      -0.72773107       0.22565102        8 
O       0.68705459      -1.57965068      -0.42047685        8 
C       3.33113550      -1.82389113      -0.43082284        6 
C      -2.88047454      -1.84980555      -0.88982951        6 
C      -1.10190780       1.89297582       0.12635032        6 
C      -0.66258901       1.65592796      -1.30966419        6 
C       0.67385516       1.62952495      -1.32878575        6 
C       1.15234111       1.81893052       0.10139905        6 
C       0.06402124       2.78035645       0.62706598        6 
H       3.01496606      -2.77424641       0.00171814        1 
H      -3.67706671      -2.08408434      -0.18178226        1 
H       1.31082650       1.38026098      -2.16745208        1 
H       4.39362487      -1.66095217      -0.26396773        1 
H       3.10548397      -1.82337724      -1.49841947        1 
H      -3.29170777      -1.65911223      -1.87908860        1 
H      -2.16557375      -2.67287757      -0.92129184        1 
H       2.19458321       2.09858761       0.23801524        1 
H      -2.11548255       2.26624952       0.26424004        1 
H       0.09758480       3.75196351       0.13148379        1 
H       0.07947471       2.91707628       1.71236006        1 
H      -1.33394251       1.43932726      -2.12760860        1 
H      -1.03279014       0.82189840       2.01049532        1 
H       1.20990722       0.50143524       1.86839258        1 
