29
Lattice="0.0 0.0 0.0 0.0 0.0 0.0 0.0 0.0 0.0" Properties=species:S:1:pos:R:3:Z:I:1 pbc="F F F"
C       0.07545040       0.76489370       0.84300007        6 
C       0.98007155      -0.51182089       0.78144150        6 
C      -1.18020162       0.75355309       0.00455020        6 
C       0.42253369      -1.74566780       0.10641125        6 
O      -2.05982580       1.67065895       0.47078003        8 
O      -1.38692033       0.08215775      -0.97608313        8 
O      -0.73264335      -2.12610743       0.69362368        8 
O       0.97981428      -2.38322764      -0.75220254        8 
C      -1.40585233      -3.24673819       0.09414084        6 
C      -3.27763538       1.81551889      -0.28326868        6 
C       1.07202979       1.88965981       0.31552719        6 
C       1.31383141       1.60177825      -1.15737111        6 
C       2.04541094       0.48553753      -1.23484230        6 
C       2.32484160       0.01831805       0.18293205        6 
C       2.40040260       1.37794125       0.91568195        6 
H      -1.70633104      -2.99492093      -0.92414728        1 
H      -3.83863603       0.87962553      -0.28404603        1 
H       2.29489124      -0.07731405      -2.12282255        1 
H      -2.28010018      -3.42772909       0.71616101        1 
H      -0.75700648      -4.12340368       0.07791377        1 
H      -3.84014448       2.59806292       0.22116157        1 
H      -3.05893527       2.10157385      -1.31330609        1 
H       3.15435852      -0.67459304       0.30765082        1 
H       0.74547477       2.89572127       0.57318709        1 
H       3.25430619       1.97946436       0.60088826        1 
H       2.38572175       1.29279983       2.00639739        1 
H       0.84451779       2.13124022      -1.97590259        1 
H      -0.20797397       0.99357854       1.87021861        1 
H       1.16024999      -0.82480437       1.81566302        1 
