29
Lattice="0.0 0.0 0.0 0.0 0.0 0.0 0.0 0.0 0.0" Properties=species:S:1:pos:R:3:Z:I:1 pbc="F F F"
C       0.26681311       0.78181529       0.78990495        6 
C       0.81376531      -0.69141480       0.82963762        6 
C      -0.98523623       1.02906833      -0.01573790        6 
C       0.00834694      -1.73482170       0.08054933        6 
O      -1.69701346       2.04645880       0.52379426        8 
O      -1.31477094       0.45879692      -1.02653018        8 
O      -1.14756887      -1.98179098       0.73816591        8 
O       0.32688385      -2.28857934      -0.93998903        8 
C      -2.08038241      -2.84541197       0.06296355        6 
C      -2.89007401       2.42515568      -0.18725617        6 
C       1.51163379       1.58847347       0.23190749        6 
C       1.74481633       1.13895736      -1.19856332        6 
C       2.20467325      -0.11555302      -1.15860742        6 
C       2.28439326      -0.52876447       0.30261015        6 
C       2.64778180       0.82601310       0.95174371        6 
H      -2.36442561      -2.40520902      -0.89395782        1 
H      -3.58433250       1.58501917      -0.24007141        1 
H       2.36220820      -0.78264648      -1.99259028        1 
H      -2.94092734      -2.91763516       0.72482975        1 
H      -1.64142306      -3.83008274      -0.10457548        1 
H      -3.32165443       3.24329106       0.38511411        1 
H      -2.64550624       2.75052479      -1.19977460        1 
H       2.91907406      -1.38447070       0.52713064        1 
H       1.42766730       2.66031732       0.40514312        1 
H       3.63598362       1.18094416       0.65531940        1 
H       2.55994032       0.83451562       2.04258925        1 
H       1.45583775       1.69900536      -2.07767781        1 
H       0.06694876       1.12404645       1.80551899        1 
H       0.83059154      -1.00970743       1.87486054        1 
