29
Lattice="0.0 0.0 0.0 0.0 0.0 0.0 0.0 0.0 0.0" Properties=species:S:1:pos:R:3:Z:I:1 pbc="F F F"
C      -0.82460852       0.41099470       0.98327794        6 
C       0.70469319       0.58972686       0.67882224        6 
C      -1.68034898      -0.78675761       0.61121894        6 
C       1.61143514      -0.54611741       0.24386505        6 
O      -1.32181591      -1.41301635      -0.51070269        8 
O      -2.70104260      -1.03681838       1.21693004        8 
O       2.89903887      -0.11170927       0.35599793        8 
O       1.33774600      -1.64633541      -0.15469776        8 
C       3.91383753      -1.04538284      -0.05093992        6 
C      -2.16646543      -2.49177194      -0.94299245        6 
C      -1.43986627       1.67404112       0.21678772        6 
C      -1.27282639       1.40127584      -1.26937751        6 
C       0.02981516       1.49758082      -1.55425824        6 
C       0.75197121       1.85352342      -0.26994428        6 
C      -0.32375861       2.71497715       0.42864555        6 
H       3.85525880      -1.95914516       0.54263044        1 
H      -3.16575334      -2.12444032      -1.18507065        1 
H       0.51426546       1.25381044      -2.49049332        1 
H       4.86084290      -0.53792944       0.12037260        1 
H       3.80080837      -1.29928546      -1.10652029        1 
H      -1.67987036      -2.89896188      -1.82638284        1 
H      -2.24345911      -3.25103146      -0.16365297        1 
H       1.75270728       2.26883734      -0.36512949        1 
H      -2.44254501       1.91893275       0.56147127        1 
H      -0.52253014       3.64643483      -0.10395823        1 
H      -0.10634325       2.92563534       1.47962707        1 
H      -2.06055107       1.05970451      -1.92695379        1 
H      -0.99247573       0.54634872       2.05142721        1 
H       1.15771942       0.92058864       1.61786716        1 
