29
Lattice="0.0 0.0 0.0 0.0 0.0 0.0 0.0 0.0 0.0" Properties=species:S:1:pos:R:3:Z:I:1 pbc="F F F"
C      -0.79490253       0.47666205       0.92903753        6 
C       0.79673514       0.45774499       0.94300462        6 
C      -1.55683973      -0.75798130       0.47627971        6 
C       1.53228702      -0.78837363       0.47539102        6 
O      -2.43149313      -0.47094446      -0.52035806        8 
O      -1.45284308      -1.85554366       0.95646672        8 
O       2.44991292      -0.50211693      -0.48176819        8 
O       1.37785220      -1.89578467       0.91837342        8 
C       3.22447264      -1.61817132      -0.95555318        6 
C      -3.23678297      -1.57059601      -0.98090816        6 
C      -1.10586065       1.80871633       0.16281777        6 
C      -0.62994498       1.63502319      -1.27144023        6 
C       0.70626059       1.62611927      -1.25499243        6 
C       1.14782631       1.79067833       0.19195774        6 
C       0.02096231       2.70742039       0.71910158        6 
H       3.81315589      -2.04790425      -0.14329234        1 
H      -3.86797823      -1.94708316      -0.17405282        1 
H       1.37350354       1.42342617      -2.07997065        1 
H       3.87546097      -1.21307463      -1.72747359        1 
H       2.57076661      -2.38834777      -1.36754420        1 
H      -3.84652143      -1.16619975      -1.78622544        1 
H      -2.60398550      -2.38080005      -1.34584985        1 
H       2.17556679       2.11212963       0.34795480        1 
H      -2.13237255       2.14632774       0.29176479        1 
H       0.03492494       3.69535579       0.25616558        1 
H       0.00686207       2.81026927       1.80868145        1 
H      -1.27971547       1.44088452      -2.11248212        1 
H      -1.11247396       0.59545373       1.96975968        1 
H       1.10256430       0.55327582       1.98940631        1 
