29
Lattice="0.0 0.0 0.0 0.0 0.0 0.0 0.0 0.0 0.0" Properties=species:S:1:pos:R:3:Z:I:1 pbc="F F F"
C      -0.73162467       0.49085208      -1.01046944        6 
C      -0.41155177      -1.02467925      -0.68263262        6 
C       0.27256769       1.55640483      -0.62625507        6 
C       0.86128748      -1.30753218       0.09181126        6 
O       0.61728519       1.51094731       0.67133529        8 
O       0.71093449       2.37341487      -1.40332677        8 
O       1.89263709      -1.46845509      -0.77368199        8 
O       0.99525642      -1.35384566       1.28773662        8 
C       3.18836902      -1.67120962      -0.18217443        6 
C       1.57531562       2.48504804       1.11885642        6 
C      -2.17700583       0.67261307      -0.39359543        6 
C      -2.07983956       0.53204175       1.11383720        6 
C      -1.80837424      -0.74844023       1.38297261        6 
C      -1.72366541      -1.48840525       0.05704551        6 
C      -2.77464286      -0.70543768      -0.76286471        6 
H       3.46072452      -0.81588062       0.43850006        1 
H       1.17532956       3.49413415       1.00663549        1 
H      -1.55981434      -1.17817955       2.34160763        1 
H       3.87666497      -1.77206962      -1.01839195        1 
H       3.19222128      -2.57382645       0.43068512        1 
H       1.75064560       2.25334770       2.16689832        1 
H       2.50002706       2.40224706       0.54535932        1 
H      -1.82673103      -2.57228391       0.10030274        1 
H      -2.68230402       1.55894008      -0.77550659        1 
H      -3.78708498      -0.83669032      -0.37861224        1 
H      -2.75293246      -0.92300090      -1.83524485        1 
H      -2.09675026       1.35618715       1.81307181        1 
H      -0.81476480       0.59005110      -2.09289849        1 
H      -0.32134403      -1.55192277      -1.63337078        1 
