29
Lattice="0.0 0.0 0.0 0.0 0.0 0.0 0.0 0.0 0.0" Properties=species:S:1:pos:R:3:Z:I:1 pbc="F F F"
C       0.40645761       1.10232907       0.68939294        6 
C       0.62069062      -0.43820271       1.02525762        6 
C      -0.79009852       1.50275778      -0.15316119        6 
C      -0.48325998      -1.40596558       0.64079638        6 
O      -1.93945726       1.24642225       0.49425037        8 
O      -0.74089395       2.04173007      -1.23369664        8 
O      -0.18070074      -2.14900004      -0.44564839        8 
O      -1.52132327      -1.52077242       1.24493246        8 
C      -1.18192375      -3.09290447      -0.86662139        6 
C      -3.15720589       1.56304168      -0.20202221        6 
C       1.77661694       1.49625916       0.03976593        6 
C       1.86252409       0.78262874      -1.30013479        6 
C       2.02827404      -0.51936103      -1.05099899        6 
C       2.06076819      -0.70046858       0.45847867        6 
C       2.74082179       0.62478525       0.87661701        6 
H      -1.38054589      -3.81773790      -0.07576567        1 
H      -3.19622402       1.04008711      -1.15886212        1 
H       2.02439521      -1.33031545      -1.76434071        1 
H      -0.76489080      -3.58491398      -1.74280451        1 
H      -2.10935535      -2.57795146      -1.12141530        1 
H      -3.95730258       1.22374406       0.45163784        1 
H      -3.22938097       2.63783147      -0.37752695        1 
H       2.49977002      -1.62808497       0.82407862        1 
H       1.94624881       2.57149060       0.02319496        1 
H       3.77216484       0.69284195       0.52800314        1 
H       2.69911158       0.82309219       1.95235708        1 
H       1.69127131       1.25531189      -2.25580078        1 
H       0.27895025       1.62460469       1.64138885        1 
H       0.65439645      -0.51745482       2.11421765        1 
