29
Lattice="0.0 0.0 0.0 0.0 0.0 0.0 0.0 0.0 0.0" Properties=species:S:1:pos:R:3:Z:I:1 pbc="F F F"
C      -0.71949840       0.37159479      -1.03583775        6 
C      -0.32202025      -1.08225154      -0.60104065        6 
C      -0.02472750       1.58642537      -0.43647012        6 
C       1.05123265      -1.35443289      -0.03264364        6 
O       1.01066750       1.29848942       0.36822715        8 
O      -0.44539235       2.70999200      -0.58952342        8 
O       2.00997951      -0.92792085      -0.88279863        8 
O       1.28047067      -2.01511855       0.95124546        8 
C       3.36606290      -1.14331198      -0.46271111        6 
C       1.59828000       2.40704299       1.07269006        6 
C      -2.23015239       0.43333505      -0.52141407        6 
C      -2.12360506       0.52898721       0.99731928        6 
C      -1.68897390      -0.65496479       1.44362362        6 
C      -1.53893535      -1.57314882       0.24070891        6 
C      -2.67264389      -1.03682049      -0.66788740        6 
H       3.55238358      -0.63677196       0.48614580        1 
H       0.86160304       2.86648460       1.73355691        1 
H      -1.39185226      -0.91381975       2.45043506        1 
H       3.98625532      -0.71876500      -1.24928434        1 
H       3.57023237      -2.20882291      -0.34510846        1 
H       2.41623937       1.98105888       1.64922034        1 
H       1.96732381       3.15467575       0.36960615        1 
H      -1.51416108      -2.64097864       0.44777050        1 
H      -2.81533427       1.20264207      -1.01873666        1 
H      -3.66611362      -1.21149045      -0.25233643        1 
H      -2.62984926      -1.41517125      -1.69383804        1 
H      -2.25177457       1.44183668       1.56357206        1 
H      -0.68196028       0.48251761      -2.12070343        1 
H      -0.31784402      -1.67444066      -1.52424870        1 
