29
Lattice="0.0 0.0 0.0 0.0 0.0 0.0 0.0 0.0 0.0" Properties=species:S:1:pos:R:3:Z:I:1 pbc="F F F"
C       1.01668570      -0.54735233      -0.82136465        6 
C       0.36624295       0.88398608      -0.93825921        6 
C       0.24541597      -1.74789583      -0.31667546        6 
C      -1.12685090       1.02854340      -0.71447598        6 
O      -0.96871615      -1.46154577       0.18002787        8 
O       0.69616080      -2.86913477      -0.36123481        8 
O      -1.45823553       1.35539807       0.54870586        8 
O      -1.93688755       0.95175792      -1.60871687        8 
C      -2.86288850       1.49808467       0.81181741        6 
C      -1.75406780      -2.57942973       0.63389261        6 
C       2.29225424      -0.27131030       0.07291405        6 
C       1.78747605       0.05957318       1.46764573        6 
C       1.20159874       1.25968574       1.40698956        6 
C       1.31092650       1.75533191      -0.02827321        6 
C       2.67184994       1.13854063      -0.42771029        6 
H      -3.28548979       2.31090982       0.21897307        1 
H      -1.24547345      -3.09706811       1.44814361        1 
H       0.64877972       1.75988286       2.18828123        1 
H      -2.93894561       1.71997345       1.87445645        1 
H      -3.38950786       0.57255065       0.57376950        1 
H      -2.69308943      -2.15155672       0.97769970        1 
H      -1.92741109      -3.27696716      -0.18638431        1 
H       1.17854739       2.82604857      -0.17885082        1 
H       3.03414563      -1.06303561      -0.00814887        1 
H       3.50704813       1.56572062       0.12899544        1 
H       2.87925904       1.18474430      -1.50098501        1 
H       1.80742980      -0.62124516       2.30845103        1 
H       1.36182039      -0.85479730      -1.81154295        1 
H       0.49893302       1.20563150      -1.97245561        1 
