29
Lattice="0.0 0.0 0.0 0.0 0.0 0.0 0.0 0.0 0.0" Properties=species:S:1:pos:R:3:Z:I:1 pbc="F F F"
C      -0.67941519       0.41183683      -1.01025912        6 
C      -0.40058100      -1.06325832      -0.57865497        6 
C       0.16047898       1.56940140      -0.50722923        6 
C       0.95799529      -1.53639274      -0.11104524        6 
O       0.76534962       1.34302659       0.67107296        8 
O       0.17269597       2.64632043      -1.05970659        8 
O       1.95936990      -0.75352923      -0.55672615        8 
O       1.14500454      -2.61476982       0.40260432        8 
C       3.29412379      -1.22560592      -0.30240976        6 
C       1.49325445       2.44725759       1.23140146        6 
C      -2.16619077       0.60768404      -0.44243062        6 
C      -2.04513530       0.65256758       1.07498665        6 
C      -1.72104581      -0.57646990       1.49060959        6 
C      -1.65111507      -1.47270803       0.26629462        6 
C      -2.73807207      -0.81540575      -0.61990248        6 
H       3.46090372      -1.33375079       0.77034671        1 
H       0.82639319       3.29020529       1.42077131        1 
H      -1.44377113      -0.87983605       2.49119622        1 
H       3.95311982      -0.46657764      -0.71822119        1 
H       3.45909739      -2.18843385      -0.78883512        1 
H       1.91419622       2.07405574       2.16252819        1 
H       2.28495531       2.76548256       0.55120894        1 
H      -1.71447687      -2.54444134       0.44010021        1 
H      -2.68875453       1.43506405      -0.91831642        1 
H      -3.73972322      -0.91242324      -0.19847997        1 
H      -2.73809361      -1.16965621      -1.65506242        1 
H      -2.08111964       1.55637659       1.66865643        1 
H      -0.69509554       0.50377314      -2.09559498        1 
H      -0.48420407      -1.64741410      -1.50620973        1 
