29
Lattice="0.0 0.0 0.0 0.0 0.0 0.0 0.0 0.0 0.0" Properties=species:S:1:pos:R:3:Z:I:1 pbc="F F F"
C      -0.34772494       1.12122397       0.61147179        6 
C       0.71413344       0.02864813       1.04402506        6 
C      -1.49582847       0.59108230      -0.21943794        6 
C       0.39842860      -1.37768666       0.56877489        6 
O      -2.60622372       0.46537597       0.53245223        8 
O      -1.45495292       0.32685738      -1.39763755        8 
O       1.37310494      -1.92254019      -0.17992502        8 
O      -0.60394729      -1.97520868       0.88579336        8 
C       1.12899906      -3.25910099      -0.65932029        6 
C      -3.73710728      -0.15227468      -0.10925348        6 
C       0.54690913       2.20027058      -0.09115799        6 
C       1.15575885       1.58738830      -1.34201702        6 
C       2.06713274       0.69302635      -0.94980087        6 
C       2.06818165       0.67300726       0.57119271        6 
C       1.76907502       2.16358347       0.85765069        6 
H       0.98543783      -3.94475136       0.17683283        1 
H      -3.48544882      -1.17371887      -0.39797287        1 
H       2.61851238       0.00429403      -1.57259604        1 
H       2.01556972      -3.52736253      -1.22960068        1 
H       0.24324431      -3.27396433      -1.29553851        1 
H      -4.52941399      -0.15025531       0.63605538        1 
H      -4.03519668       0.41460007      -0.99230790        1 
H       2.94266252       0.23327884       1.04829061        1 
H       0.03689171       3.15481675      -0.21800650        1 
H       2.57420910       2.82160522       0.52820313        1 
H       1.52075747       2.37308696       1.90277506        1 
H       0.81120898       1.77467196      -2.34843335        1 
H      -0.78335175       1.54905742       1.51445466        1 
H       0.69534446      -0.04290559       2.13483692        1 
