29
Lattice="0.0 0.0 0.0 0.0 0.0 0.0 0.0 0.0 0.0" Properties=species:S:1:pos:R:3:Z:I:1 pbc="F F F"
C       0.41614378       1.05545954       0.58944681        6 
C       0.67642376      -0.42732841       1.00569871        6 
C      -0.93279663       1.57017174       0.13823467        6 
C      -0.17839505      -1.57786045       0.51517151        6 
O      -1.95076624       0.76813534       0.50207084        8 
O      -1.09896381       2.68634153      -0.29658564        8 
O      -0.77574278      -1.36161756      -0.66853964        8 
O      -0.20163511      -2.64847335       1.07976735        8 
C      -1.51845493      -2.46305646      -1.21512780        6 
C      -3.27640763       1.27324256       0.26209987        6 
C       1.66669431       1.45745963      -0.25977158        6 
C       1.70690890       0.57888444      -1.49575032        6 
C       2.01190755      -0.66160285      -1.10102814        6 
C       2.15277468      -0.64136238       0.41418438        6 
C       2.75209759       0.76829601       0.60378484        6 
H      -0.87078635      -3.32829770      -1.36592557        1 
H      -3.43620697       1.42749597      -0.80616812        1 
H       2.02497390      -1.55632401      -1.70932868        1 
H      -1.90879047      -2.10553059      -2.16571327        1 
H      -2.33443383      -2.74111041      -0.54592659        1 
H      -3.94957590       0.50784666       0.64230806        1 
H      -3.42876818       2.21744772       0.78711147        1 
H       2.66467762      -1.48711632       0.86887586        1 
H       1.74325325       2.53037442      -0.41917467        1 
H       3.74922271       0.85210028       0.16925722        1 
H       2.77116993       1.10827456       1.64329402        1 
H       1.42631239       0.90015038      -2.48995756        1 
H       0.51807169       1.62692410       1.52270079        1 
H       0.70925711      -0.52437342       2.08989023        1 
