29
Lattice="0.0 0.0 0.0 0.0 0.0 0.0 0.0 0.0 0.0" Properties=species:S:1:pos:R:3:Z:I:1 pbc="F F F"
C      -0.74175906       0.89076809      -0.84077237        6 
C      -0.63598524      -0.68703763      -1.00850520        6 
C       0.55462793       1.59380821      -0.49403370        6 
C       0.72727672      -1.28108263      -0.70433129        6 
O       0.82260340       1.59975920       0.82938660        8 
O       1.30657180       2.04931912      -1.31965206        8 
O       0.78851643      -1.94211782       0.46858360        8 
O       1.66590606      -1.19629258      -1.45925460        8 
C       2.06563973      -2.51653264       0.79895052        6 
C       2.09194453       2.16428100       1.20708966        6 
C      -1.99038911       1.04798434       0.09744887        6 
C      -1.68593346       0.43770329       1.45540198        6 
C      -1.62528411      -0.88696703       1.29830994        6 
C      -1.87195546      -1.18820197      -0.17369694        6 
C      -2.88327731      -0.06534211      -0.50689194        6 
H       2.36463249      -3.24500788       0.04373256        1 
H       2.14819231       3.21291745       0.91153149        1 
H      -1.33688503      -1.62283682       2.03395385        1 
H       1.92513830      -2.99811223       1.76418636        1 
H       2.82644859      -1.73722680       0.86412527        1 
H       2.14160036       2.06641366       2.28943766        1 
H       2.90522604       1.61511749       0.73006094        1 
H      -2.16270076      -2.21023413      -0.41452989        1 
H      -2.39168202       2.06107476       0.10077331        1 
H      -3.82689336      -0.18238766       0.02768316        1 
H      -3.07713511       0.05520802      -1.57729414        1 
H      -1.45644721       1.00418733       2.34612063        1 
H      -0.99691287       1.29777792      -1.82012521        1 
H      -0.79221898      -0.91196140      -2.06519406        1 
