29
Lattice="0.0 0.0 0.0 0.0 0.0 0.0 0.0 0.0 0.0" Properties=species:S:1:pos:R:3:Z:I:1 pbc="F F F"
C      -0.79096656       0.82930832       0.61629547        6 
C       0.59826446       0.18083504       0.90646160        6 
C      -1.92384372       0.01708147       0.03014430        6 
C       0.99777179      -1.00578974       0.04417569        6 
O      -2.02291147      -1.18309492       0.63250210        8 
O      -2.77100962       0.46479899      -0.70596750        8 
O       2.29356070      -1.32228534       0.29099552        8 
O       0.31032476      -1.63100281      -0.72142576        8 
C       2.81721922      -2.44326843      -0.44309525        6 
C      -3.09131243      -2.03271665       0.18393581        6 
C      -0.45140507       2.18760677      -0.06450665        6 
C       0.33310681       1.90854183      -1.33445111        6 
C       1.54543967       1.46989787      -0.97639915        6 
C       1.57232354       1.39788548       0.54712103        6 
C       0.69615201       2.62352928       0.88097991        6 
H       2.24443737      -3.34590030      -0.22427184        1 
H      -2.96153172      -2.26920106      -0.87329713        1 
H       2.32474394       1.09233153      -1.62536447        1 
H       3.84713222      -2.55292654      -0.11030996        1 
H       2.77899714      -2.24846789      -1.51625931        1 
H      -3.01524586      -2.93601263       0.78544475        1 
H      -4.05838352      -1.54970663       0.33302894        1 
H       2.55079432       1.31901846       1.01376355        1 
H      -1.31208732       2.84512719      -0.16182041        1 
H       1.16465900       3.55856350       0.57063844        1 
H       0.39903269       2.68916688       1.93167979        1 
H      -0.07734281       1.96783593      -2.33329859        1 
H      -1.20480879       1.08242231       1.60164122        1 
H       0.70226379      -0.11263579       1.95194297        1 
