29
Lattice="0.0 0.0 0.0 0.0 0.0 0.0 0.0 0.0 0.0" Properties=species:S:1:pos:R:3:Z:I:1 pbc="F F F"
C      -0.80963765       0.48277371       1.01656132        6 
C       0.73447172       0.61646699       0.74673718        6 
C      -1.48790517      -0.83971109       0.69863538        6 
C       1.45717983      -0.54854530       0.11202159        6 
O      -1.85327677      -0.96927714      -0.58508459        8 
O      -1.77253077      -1.64704463       1.55425601        8 
O       2.78067958      -0.46819203       0.38931925        8 
O       0.98445763      -1.41630547      -0.57907598        8 
C       3.61017700      -1.48661523      -0.20025260        6 
C      -2.40110057      -2.24185638      -0.96537894        6 
C      -1.38121131       1.74607952       0.25568792        6 
C      -1.13119913       1.57019615      -1.23396004        6 
C       0.18293312       1.68955455      -1.44400789        6 
C       0.83534540       1.94948462      -0.10056817        6 
C      -0.27454574       2.77132120       0.59411412        6 
H       3.30890009      -2.47412658       0.15251203        1 
H      -3.28705233      -2.47574778      -0.37332496        1 
H       0.71577911       1.51209952      -2.36863279        1 
H       4.62339192      -1.25717681       0.12220937        1 
H       3.53696075      -1.45740529      -1.28860157        1 
H      -2.65571202      -2.14371226      -2.01874036        1 
H      -1.64988466      -3.02069267      -0.82716369        1 
H       1.84237393       2.36286369      -0.11232338        1 
H      -2.40184810       1.99126551       0.54701420        1 
H      -0.43773009       3.73663494       0.11271124        1 
H      -0.11433386       2.91140843       1.66719868        1 
H      -1.88336194       1.28381504      -1.95350807        1 
H      -0.97241294       0.61247182       2.08642907        1 
H       1.23733187       0.79777163       1.69858333        1 
