29
Lattice="0.0 0.0 0.0 0.0 0.0 0.0 0.0 0.0 0.0" Properties=species:S:1:pos:R:3:Z:I:1 pbc="F F F"
C      -0.81142883       0.39189157       0.70396929        6 
C       0.73614797       0.30333221       0.85151059        6 
C      -1.62081305      -0.83926544       0.35732061        6 
C       1.50608876      -0.69809699       0.00940369        6 
O      -2.89720146      -0.47336980       0.06700109        8 
O      -1.25018270      -1.98248907       0.35795773        8 
O       2.79733798      -0.72564361       0.43828047        8 
O       1.10554374      -1.37058208      -0.90135531        8 
C       3.67122817      -1.61406349      -0.27962910        6 
C      -3.80434538      -1.54916421      -0.23252409        6 
C      -1.06149057       1.74032276      -0.05599797        6 
C      -0.36462649       1.67612763      -1.40351848        6 
C       0.95349747       1.71811250      -1.18170081        6 
C       1.16074447       1.76122493       0.32671642        6 
C      -0.05692076       2.61623405       0.73221693        6 
H       3.30311709      -2.63969413      -0.22314710        1 
H      -3.88635386      -2.23068115       0.61603357        1 
H       1.74222474       1.58918495      -1.91108279        1 
H       4.64007344      -1.52638305       0.20755326        1 
H       3.74132673      -1.31901753      -1.32834198        1 
H      -4.76198893      -1.07342725      -0.43388649        1 
H      -3.46081207      -2.10618660      -1.10551030        1 
H       2.14437219       2.06642330       0.67632520        1 
H      -2.10635953       2.04027083      -0.05845394        1 
H       0.01027001       3.63314539       0.34240952        1 
H      -0.24795802       2.64401349       1.80864456        1 
H      -0.86440538       1.51631190      -2.34957622        1 
H      -1.17810063       0.58962990       1.72174904        1 
H       1.03557006       0.17845096       1.89137245        1 
