29
Lattice="0.0 0.0 0.0 0.0 0.0 0.0 0.0 0.0 0.0" Properties=species:S:1:pos:R:3:Z:I:1 pbc="F F F"
C      -0.61555125       0.94578596      -0.72689839        6 
C      -0.66635347      -0.60516838      -0.98193579        6 
C       0.61570948       1.58299804      -0.11925727        6 
C       0.50672854      -1.46875975      -0.56813949        6 
O       1.74861539       0.97515977      -0.52381429        8 
O       0.60428733       2.60477052       0.52390142        8 
O       0.80472734      -1.37326388       0.74293991        8 
O       1.08132047      -2.21795055      -1.32238114        8 
C       1.93082534      -2.14550626       1.18902473        6 
C       2.98428484       1.56392297      -0.08184325        6 
C      -1.95256600       1.24211452       0.03377862        6 
C      -1.84256670       0.59213466       1.40226055        6 
C      -1.88929346      -0.73163894       1.22085034        6 
C      -2.03173906      -0.99174260      -0.27221898        6 
C      -2.88283613       0.23360013      -0.67944529        6 
H       1.76859703      -3.20842920       1.00400295        1 
H       3.03366009       1.56764727       1.00813406        1 
H      -1.73068325      -1.49902357       1.96525940        1 
H       2.01334853      -1.94906801       2.25595671        1 
H       2.83609880      -1.82762216       0.66849556        1 
H       3.76819978       0.93732266      -0.50135343        1 
H       3.07257811       2.58765572      -0.44880050        1 
H      -2.39543890      -1.97671099      -0.56303842        1 
H      -2.23219581       2.29289394       0.01422107        1 
H      -3.88392362       0.20816018      -0.24662812        1 
H      -2.95249232       0.38083935      -1.76174643        1 
H      -1.63684653       1.12427644       2.32069941        1 
H      -0.67387447       1.42964784      -1.71021401        1 
H      -0.77230819      -0.78878072      -2.05041687        1 
