29
Lattice="0.0 0.0 0.0 0.0 0.0 0.0 0.0 0.0 0.0" Properties=species:S:1:pos:R:3:Z:I:1 pbc="F F F"
C      -0.84618602       0.63156297      -0.84413055        6 
C      -0.25570186      -0.82241229      -0.76613380        6 
C      -0.06750755       1.73202792      -0.15469565        6 
C       0.99369498      -1.00796814       0.06347530        6 
O       1.19708823       1.78139906      -0.62648833        8 
O      -0.51681503       2.52002176       0.63921476        8 
O       1.85586389      -1.84240152      -0.56158790        8 
O       1.20253919      -0.54068642       1.15654598        8 
C       3.06388250      -2.15265110       0.15632296        6 
C       2.06945137       2.73553213       0.00524031        6 
C      -2.31549172       0.45378625      -0.32716714        6 
C      -2.23400339       0.09654315       1.14817978        6 
C      -1.73798725      -1.14185252       1.23402476        6 
C      -1.48462145      -1.63767687      -0.18081220        6 
C      -2.63653313      -0.93197220      -0.93293144        6 
H       3.63354879      -1.24327162       0.35399633        1 
H       2.18885865       2.48461809       1.06028367        1 
H      -1.43871111      -1.66384178       2.13225854        1 
H       3.62372416      -2.82183252      -0.49340007        1 
H       2.83151543      -2.64214625       1.10349089        1 
H       3.01938512       2.65168750      -0.51837672        1 
H       1.66643752       3.74488650      -0.08697403        1 
H      -1.37792232      -2.71387818      -0.31291390        1 
H      -2.96738637       1.28487200      -0.58923392        1 
H      -3.61754357      -1.30466641      -0.63441103        1 
H      -2.53951308      -0.97443892      -2.02254028        1 
H      -2.41755335       0.78984262       1.95567431        1 
H      -0.86853943       0.91812014      -1.90076871        1 
H      -0.04153370      -1.18930285      -1.76923830        1 
