29
Lattice="0.0 0.0 0.0 0.0 0.0 0.0 0.0 0.0 0.0" Properties=species:S:1:pos:R:3:Z:I:1 pbc="F F F"
C       0.35550415       0.83107628       0.73217181        6 
C       0.72645001      -0.69968209       0.85269803        6 
C      -0.85274527       1.16628910      -0.11023549        6 
C      -0.15680391      -1.65600141       0.07640430        6 
O      -1.70524877       1.96409477       0.57628544        8 
O      -1.05012695       0.81902104      -1.24861478        8 
O      -1.31738586      -1.84996688       0.74999573        8 
O       0.07459152      -2.15206386      -0.99501688        8 
C      -2.31618518      -2.63175406       0.06844427        6 
C      -2.88901374       2.37341885      -0.13331797        6 
C       1.70069510       1.46474259       0.20302104        6 
C       1.95993707       0.93229093      -1.19362928        6 
C       2.27672362      -0.36051179      -1.07922081        6 
C       2.23280078      -0.71614016       0.39867708        6 
C       2.70843846       0.61854240       1.01548629        6 
H      -2.57732134      -2.15967233      -0.87982708        1 
H      -3.48365291       1.50268167      -0.41460539        1 
H       2.40800517      -1.07495258      -1.87762329        1 
H      -3.17309788      -2.65489262       0.73843722        1 
H      -1.94985283      -3.64202525      -0.12005222        1 
H      -3.43970458       3.00490767       0.56036554        1 
H      -2.62359327       2.93000305      -1.03345878        1 
H       2.75770337      -1.62394056       0.69338143        1 
H       1.73284342       2.54642059       0.33024430        1 
H       3.74380471       0.85036287       0.76211205        1 
H       2.56567023       0.68400605       2.09865823        1 
H       1.77815252       1.48020823      -2.10753593        1 
H       0.16179032       1.22086165       1.73116400        1 
H       0.64802145      -0.98017544       1.90475990        1 
