29
Lattice="0.0 0.0 0.0 0.0 0.0 0.0 0.0 0.0 0.0" Properties=species:S:1:pos:R:3:Z:I:1 pbc="F F F"
C      -0.89357198       0.37485578       0.97425500        6 
C       0.63539818       0.81999954       0.92750232        6 
C      -1.19716167      -1.06641487       0.60723937        6 
C       1.64387748      -0.25224497       0.55904691        6 
O      -1.83786035      -1.19319898      -0.57600869        8 
O      -0.92601872      -2.00798272       1.30963015        8 
O       2.09256847      -0.14631689      -0.71202086        8 
O       2.00487090      -1.12058386       1.31257385        8 
C       3.03008780      -1.15270806      -1.13521302        6 
C      -2.16264556      -2.53719245      -0.97539818        6 
C      -1.58892714       1.50539956       0.13618056        6 
C      -1.12645162       1.39059527      -1.30906113        6 
C       0.15723160       1.75505987      -1.35331039        6 
C       0.57926182       2.12309400       0.05961174        6 
C      -0.74811905       2.72338017       0.58777240        6 
H       3.93657228      -1.11068298      -0.52941026        1 
H      -2.82625862      -3.00380897      -0.24587447        1 
H       0.82620443       1.70341191      -2.19941707        1 
H       3.25320975      -0.92099628      -2.17468380        1 
H       2.58798209      -2.14619629      -1.04787054        1 
H      -2.65890198      -2.44015056      -1.93882805        1 
H      -1.25608804      -3.13698950      -1.06795563        1 
H       1.47700415       2.73325977       0.15099390        1 
H      -2.66570387       1.55187162       0.29407257        1 
H      -1.02783920       3.63969936       0.06680716        1 
H      -0.75874433       2.89209941       1.66912970        1 
H      -1.72181160       0.98078146      -2.11131716        1 
H      -1.21407680       0.44970421       2.01551499        1 
H       0.91204406       1.09101781       1.94858610        1 
