29
Lattice="0.0 0.0 0.0 0.0 0.0 0.0 0.0 0.0 0.0" Properties=species:S:1:pos:R:3:Z:I:1 pbc="F F F"
C      -0.74509602       0.52684399       0.76723509        6 
C       0.80199950       0.25212581       0.74993509        6 
C      -1.69230342      -0.33890287      -0.04344440        6 
C       1.36460109      -0.92981943      -0.00610601        6 
O      -2.54053218      -0.99321388       0.79581324        8 
O      -1.73168647      -0.46555328      -1.23760375        8 
O       2.53769277      -1.30528492       0.57338261        8 
O       0.92285662      -1.46582769      -0.98776857        8 
C       3.24124602      -2.37677140      -0.07913804        6 
C      -3.49572245      -1.86250176       0.16173628        6 
C      -0.81003697       2.03480150       0.27212252        6 
C      -0.35222349       2.05810262      -1.17684835        6 
C       0.96343478       1.82137548      -1.19007187        6 
C       1.40441001       1.62929558       0.24669750        6 
C       0.44599097       2.60069974       0.96889198        6 
H       2.62585473      -3.27742871      -0.10730498        1 
H      -2.98353247      -2.62659675      -0.42485260        1 
H       1.58455292       1.64834956      -2.05841798        1 
H       4.13596041      -2.54301339       0.51715542        1 
H       3.50684765      -2.09610327      -1.09987892        1 
H      -4.06134747      -2.31462599       0.97389473        1 
H      -4.15624372      -1.29279131      -0.49443209        1 
H       2.46941803       1.71810564       0.45436427        1 
H      -1.76617712       2.51022192       0.48831834        1 
H       0.63395382       3.64225863       0.70409625        1 
H       0.43880120       2.48706280       2.05700428        1 
H      -1.01107928       2.11889483      -2.03047859        1 
H      -1.08360561       0.48049119       1.80150482        1 
H       1.12651360       0.12144903       1.78362275        1 
