29
Lattice="0.0 0.0 0.0 0.0 0.0 0.0 0.0 0.0 0.0" Properties=species:S:1:pos:R:3:Z:I:1 pbc="F F F"
C      -0.71400827       0.38703632      -1.03564558        6 
C      -0.35929360      -1.07785605      -0.61215532        6 
C       0.05911301       1.56581291      -0.47334492        6 
C       1.01034190      -1.38656452      -0.05443668        6 
O       0.89565420       1.24552530       0.52879640        8 
O      -0.15129139       2.70527907      -0.81960610        8 
O       1.97527882      -0.88425736      -0.85540175        8 
O       1.23318778      -2.12511856       0.87368420        8 
C       3.32958126      -1.13706984      -0.44825153        6 
C       1.54112604       2.34249184       1.19802983        6 
C      -2.20864817       0.50803787      -0.48175319        6 
C      -2.08144056       0.57026968       1.03522155        6 
C      -1.68909589      -0.63767081       1.45488339        6 
C      -1.58619672      -1.53851615       0.23432603        6 
C      -2.70875638      -0.94207649      -0.65024837        6 
H       3.51605966      -0.69897879       0.53406199        1 
H       0.79851246       2.98868146       1.66931658        1 
H      -1.38613856      -0.92360440       2.45255124        1 
H       3.95384214      -0.66176190      -1.20182604        1 
H       3.52693981      -2.20932115      -0.40544183        1 
H       2.18142288       1.88558119       1.94913734        1 
H       2.12866677       2.92950297       0.49089052        1 
H      -1.60083012      -2.61006336       0.42172024        1 
H      -2.76905242       1.30774166      -0.96061024        1 
H      -3.70321979      -1.08783101      -0.22595477        1 
H      -2.69221422      -1.30010247      -1.68420509        1 
H      -2.16281359       1.47642403       1.62128356        1 
H      -0.71209615       0.49851901      -2.12003192        1 
H      -0.37534125      -1.66800402      -1.53696806        1 
