29
Lattice="0.0 0.0 0.0 0.0 0.0 0.0 0.0 0.0 0.0" Properties=species:S:1:pos:R:3:Z:I:1 pbc="F F F"
C      -0.77251432       0.60697212       0.78918535        6 
C       0.77461876       0.44309100       0.99297838        6 
C      -1.46333163      -0.46974660      -0.01460351        6 
C       1.32706613      -0.92443519       0.64789091        6 
O      -2.74217220      -0.61824113       0.39839288        8 
O      -0.98882055      -1.08567796      -0.93687512        8 
O       2.33985219      -0.87204150      -0.23664716        8 
O       0.91988413      -1.94861926       1.14081116        8 
C       2.86499976      -2.14413527      -0.66206965        6 
C      -3.52917044      -1.58193339      -0.32606474        6 
C      -0.84991946       2.00178912       0.03022571        6 
C      -0.24688347       1.79695382      -1.34999092        6 
C       1.06820331       1.61817555      -1.19337259        6 
C       1.37111755       1.71093772       0.29155154        6 
C       0.30908425       2.75095295       0.72482903        6 
H       3.27355178      -2.69411398       0.18695655        1 
H      -3.08046126      -2.57322014      -0.24811281        1 
H       1.78444571       1.32917160      -1.94885070        1 
H       3.64758237      -1.90849385      -1.38006748        1 
H       2.07546966      -2.73351680      -1.12987029        1 
H      -4.51032881      -1.56643142       0.14339540        1 
H      -3.60236477      -1.30269561      -1.37857322        1 
H       2.40715534       1.90599382       0.56188028        1 
H      -1.84232789       2.44851300       0.07037254        1 
H       0.48335208       3.73650661       0.29070891        1 
H       0.19029675       2.83684899       1.80902969        1 
H      -0.81735537       1.67676936      -2.26108809        1 
H      -1.28228997       0.69485783       1.74750835        1 
H       0.96153601       0.53156776       2.06838862        1 
