29
Lattice="0.0 0.0 0.0 0.0 0.0 0.0 0.0 0.0 0.0" Properties=species:S:1:pos:R:3:Z:I:1 pbc="F F F"
C      -0.72486149       0.17490509       0.86710934        6 
C       0.68633912       0.85746120       0.73910566        6 
C      -0.91724988      -1.17138843       0.20494100        6 
C       1.74139055       0.13293990      -0.07946545        6 
O      -2.21496672      -1.54414365       0.29381160        8 
O      -0.07284351      -1.84983987      -0.32364328        8 
O       2.53614148      -0.60078201       0.72997859        8 
O       1.87724533       0.18244089      -1.27551035        8 
C       3.46531075      -1.47101243       0.05889101        6 
C      -2.55059285      -2.81592974      -0.29182596        6 
C      -1.71463078       1.29615642       0.36469562        6 
C      -1.46056963       1.46690189      -1.12190361        6 
C      -0.25700810       2.03234937      -1.25953716        6 
C       0.30845574       2.26214957       0.13559496        6 
C      -0.99686340       2.54665511       0.91610764        6 
H       2.91911066      -2.17073911      -0.57534877        1 
H      -2.00138777      -3.62056362       0.19979711        1 
H       0.28850029       2.19380026      -2.17695696        1 
H       3.99434872      -1.99796764       0.85019756        1 
H       4.16178100      -0.89415229      -0.55159334        1 
H      -3.62086016      -2.93252957      -0.13551528        1 
H      -2.31476625      -2.81926190      -1.35696624        1 
H       1.11311897       2.99218562       0.21280166        1 
H      -2.74316760       1.12096209       0.67189228        1 
H      -1.47782249       3.47373731       0.60085030        1 
H      -0.87258459       2.54238651       2.00341023        1 
H      -2.09528735       1.07591095      -1.90615139        1 
H      -0.92864896      -0.00254759       1.92860067        1 
H       1.09489812       0.99002374       1.74126389        1 
