29
Lattice="0.0 0.0 0.0 0.0 0.0 0.0 0.0 0.0 0.0" Properties=species:S:1:pos:R:3:Z:I:1 pbc="F F F"
C      -0.69646758       0.51911867      -0.99928724        6 
C      -0.51424776      -1.00332762      -0.67073011        6 
C       0.32494954       1.52440559      -0.51377221        6 
C       0.78974900      -1.48525263      -0.07853081        6 
O       0.81150935       1.24238129       0.71035876        8 
O       0.61776969       2.52349071      -1.12790908        8 
O       1.84434214      -0.93389964      -0.71754314        8 
O       0.89532210      -2.36462067       0.74097851        8 
C       3.14568968      -1.37401934      -0.29403419        6 
C       1.77261013       2.16966376       1.24062570        6 
C      -2.13178070       0.80131095      -0.36396734        6 
C      -1.99454120       0.67800510       1.14553146        6 
C      -1.79502309      -0.61306233       1.43021333        6 
C      -1.80955088      -1.38028206       0.11948404        6 
C      -2.83171356      -0.53949936      -0.68355864        6 
H       3.29252863      -1.15942233       0.76570267        1 
H       1.33002046       3.16091486       1.35048120        1 
H      -1.54292186      -1.04459338       2.38880191        1 
H       3.85290582      -0.81252283      -0.90062365        1 
H       3.26167263      -2.44596398      -0.46190141        1 
H       2.05758523       1.76759053       2.21053905        1 
H       2.63945432       2.23709694       0.58101036        1 
H      -1.97559134      -2.45324082       0.18709439        1 
H      -2.58503639       1.71533334      -0.74400035        1 
H      -3.83876766      -0.59200853      -0.26703071        1 
H      -2.86166825      -0.77892477      -1.75106207        1 
H      -1.93567280       1.51378458       1.82948728        1 
H      -0.75894803       0.67056576      -2.07599877        1 
H      -0.55058283      -1.53295808      -1.63113534        1 
