29
Lattice="0.0 0.0 0.0 0.0 0.0 0.0 0.0 0.0 0.0" Properties=species:S:1:pos:R:3:Z:I:1 pbc="F F F"
C      -0.62530608       0.96192743       0.68175109        6 
C       0.68127352       0.12067140       0.93529877        6 
C      -1.72883752       0.29867005      -0.11801476        6 
C       0.76075394      -1.23610740       0.26303585        6 
O      -2.56726372      -0.36654415       0.70232652        8 
O      -1.88711096       0.38421569      -1.31088797        8 
O       2.04617389      -1.63204463       0.13642522        8 
O      -0.17294983      -1.92486858      -0.06703488        8 
C       2.25134186      -2.93567473      -0.43951498        6 
C      -3.56745633      -1.17135578       0.05418624        6 
C      -0.06015364       2.27100200       0.02951718        6 
C       0.58494406       1.89426765      -1.29653726        6 
C       1.70951296       1.22387071      -1.02353688        6 
C       1.81995122       1.11678464       0.48940670        6 
C       1.19862314       2.46589699       0.90680973        6 
H       1.79026746      -3.70478759       0.18222663        1 
H      -3.08401230      -1.92334547      -0.57080682        1 
H       2.36188842       0.72105269      -1.72453235        1 
H       3.33028795      -3.06888284      -0.47617246        1 
H       1.82329290      -2.98021211      -1.44202066        1 
H      -4.12730266      -1.64331871       0.85894307        1 
H      -4.22402483      -0.55170432      -0.55881500        1 
H       2.79742705       0.86192880       0.89152191        1 
H      -0.78773413       3.08095042      -0.00296521        1 
H       1.80345659       3.31707894       0.59034699        1 
H       0.98241061       2.54269572       1.97683636        1 
H       0.13088001       2.05024750      -2.26372885        1 
H      -1.05661546       1.20790943       1.65362869        1 
H       0.77022215      -0.08569719       2.00717848        1 
