29
Lattice="0.0 0.0 0.0 0.0 0.0 0.0 0.0 0.0 0.0" Properties=species:S:1:pos:R:3:Z:I:1 pbc="F F F"
C      -0.79494212       0.72859463       0.86875950        6 
C       0.76027251       0.43681952       1.00820795        6 
C      -1.70019582      -0.43794672       0.52610422        6 
C       1.24694762      -0.93096586       0.55274656        6 
O      -2.07269667      -0.44576481      -0.77435238        8 
O      -2.04279399      -1.27946068       1.31614131        8 
O       2.28963240      -0.85069708      -0.30513459        8 
O       0.82246987      -1.98111365       0.96458683        8 
C       2.83948140      -2.10618831      -0.74413152        6 
C      -2.90056888      -1.55126211      -1.18098122        6 
C      -0.82855392       2.00414082      -0.03506093        6 
C      -0.23871254       1.66514891      -1.39401927        6 
C       1.07478140       1.48303384      -1.23202558        6 
C       1.38278206       1.66793979       0.24754385        6 
C       0.35878017       2.77210361       0.59580880        6 
H       3.20639332      -2.68250949       0.10636463        1 
H      -3.84904861      -1.53692463      -0.64150794        1 
H       1.78885281       1.14804847      -1.96981138        1 
H       3.65636987      -1.84549577      -1.41372189        1 
H       2.08234394      -2.68915269      -1.27081110        1 
H      -3.06535108      -1.41308049      -2.24766039        1 
H      -2.39285326      -2.49690566      -0.98653068        1 
H       2.42528449       1.84749501       0.50299871        1 
H      -1.80014814       2.49672711      -0.04052138        1 
H       0.57067204       3.71158466       0.08351689        1 
H       0.24565522       2.95171350       1.66941365        1 
H      -0.81949218       1.50740201      -2.29122918        1 
H      -1.13912628       1.01780486       1.86490742        1 
H       1.01714268       0.47849324       2.06989327        1 
