29
Lattice="0.0 0.0 0.0 0.0 0.0 0.0 0.0 0.0 0.0" Properties=species:S:1:pos:R:3:Z:I:1 pbc="F F F"
C      -0.58794206       0.79814707       0.66759368        6 
C       0.85128112       0.26992136       1.03293659        6 
C      -1.56346992      -0.12194951      -0.03051669        6 
C       1.21446816      -1.17373981       0.73333695        6 
O      -2.80238119       0.05265710       0.49631745        8 
O      -1.34377565      -0.87535047      -0.94524973        8 
O       1.41824048      -1.42549403      -0.56536535        8 
O       1.38922660      -1.99698034       1.60492482        8 
C       1.69714618      -2.79033107      -0.91802272        6 
C      -3.86019515      -0.71008937      -0.11193561        6 
C      -0.27733475       2.11122323      -0.16217295        6 
C       0.39157382       1.70328963      -1.45942309        6 
C       1.61454249       1.25709357      -1.15705062        6 
C       1.78250407       1.35368544       0.34957657        6 
C       0.94388626       2.62158533       0.63372285        6 
H       2.61782744      -3.13238870      -0.44241921        1 
H      -3.65399303      -1.77872579      -0.03505625        1 
H       2.32104011       0.78862814      -1.82602295        1 
H       1.79646568      -2.79242319      -2.00120260        1 
H       0.87111702      -3.43346145      -0.61146779        1 
H      -4.75927778      -0.45293090       0.44384596        1 
H      -3.96963361      -0.44213782      -1.16431627        1 
H       2.80407902       1.33076017       0.72708948        1 
H      -1.14061392       2.77111361      -0.24013572        1 
H       1.38176873       3.51793145       0.19190231        1 
H       0.74102777       2.79022848       1.69524171        1 
H      -0.09860334       1.66354038      -2.42242101        1 
H      -1.07665135       1.10502829       1.59205447        1 
H       0.96383590       0.34749857       2.11402301        1 
