29
Lattice="0.0 0.0 0.0 0.0 0.0 0.0 0.0 0.0 0.0" Properties=species:S:1:pos:R:3:Z:I:1 pbc="F F F"
C       0.16209319       0.80488660       0.79095009        6 
C       0.91035686      -0.57090010       0.77874942        6 
C      -1.08097990       0.93585268      -0.05919643        6 
C       0.24467488      -1.78737577       0.17555544        6 
O      -1.98898773       1.72892950       0.55826966        8 
O      -1.25808946       0.46343438      -1.15462827        8 
O      -1.06650585      -1.83870232       0.48348185        8 
O       0.83776432      -2.69112735      -0.36239226        8 
C      -1.79106577      -2.97837405      -0.01243034        6 
C      -3.20376026       1.97666806      -0.17235504        6 
C       1.30040716       1.77724485       0.24036000        6 
C       1.54448363       1.40252797      -1.21357009        6 
C       2.14641793       0.20889445      -1.22801944        6 
C       2.32643679      -0.23151099       0.21265991        6 
C       2.54464536       1.13873463       0.89731478        6 
H      -1.74635314      -3.00530643      -1.10193298        1 
H      -3.72183747       1.03842836      -0.37761121        1 
H       2.35647522      -0.41082332      -2.08860031        1 
H      -2.81619108      -2.83887108       0.32377977        1 
H      -1.37554370      -3.90283647       0.39166628        1 
H      -3.80573852       2.61411077       0.47165426        1 
H      -2.98843830       2.47895581      -1.11697844        1 
H       3.05889407      -1.01489029       0.39341219        1 
H       1.09665985       2.82677457       0.44809985        1 
H       3.47134076       1.61964611       0.58187587        1 
H       2.49615261       1.10160125       1.98987174        1 
H       1.16021741       1.94845876      -2.06414819        1 
H      -0.09450944       1.09350095       1.80896002        1 
H       1.03552906      -0.86458847       1.82884291        1 
