29
Lattice="0.0 0.0 0.0 0.0 0.0 0.0 0.0 0.0 0.0" Properties=species:S:1:pos:R:3:Z:I:1 pbc="F F F"
C      -0.65669799       0.81251587      -0.89972521        6 
C      -0.76736080      -0.76104903      -0.85025419        6 
C       0.59408518       1.64130372      -0.67297372        6 
C       0.35788188      -1.74276723      -0.58169688        6 
O       1.34444468       1.27956502       0.37461864        8 
O       0.81504331       2.63802634      -1.32686740        8 
O       1.22872258      -1.38050732       0.36704449        8 
O       0.38450756      -2.82795928      -1.12114700        8 
C       2.23732725      -2.34966293       0.70278060        6 
C       2.47608732       2.11784527       0.66247119        6 
C      -1.79722448       1.25915307       0.11691180        6 
C      -1.37234648       0.81779035       1.50619296        6 
C      -1.46118238      -0.51577575       1.54981122        6 
C      -1.94756773      -0.98657474       0.19090885        6 
C      -2.86484024       0.19092219      -0.20090358        6 
H       1.77908071      -3.26344013       1.08481965        1 
H       2.15184590       3.13147903       0.90420500        1 
H      -1.13339234      -1.16648262       2.34894764        1 
H       2.84619217      -1.87514286       1.46926700        1 
H       2.84101219      -2.59325562      -0.17278182        1 
H       2.96452532       1.65631710       1.51816407        1 
H       3.15245229       2.15484481      -0.19281295        1 
H      -2.36060895      -1.99266500       0.13617596        1 
H      -2.07406223       2.30513913      -0.00488188        1 
H      -3.73876963       0.26953048       0.44738648        1 
H      -3.17912389       0.17630920      -1.24840998        1 
H      -0.95717227       1.46982569       2.26204352        1 
H      -0.97598060       1.12134123      -1.89540707        1 
H      -1.14050225      -1.08128911      -1.82368807        1 
