29
Lattice="0.0 0.0 0.0 0.0 0.0 0.0 0.0 0.0 0.0" Properties=species:S:1:pos:R:3:Z:I:1 pbc="F F F"
C      -0.72876074       0.39091484       0.97929931        6 
C       0.81390451       0.69109843       0.88079632        6 
C      -1.22453592      -0.88273503       0.30814545        6 
C       1.73545509      -0.48218774       0.61222663        6 
O      -2.52596799      -0.75170917      -0.04700770        8 
O      -0.61915640      -1.91585315       0.18206619        8 
O       2.25511739      -0.45524347      -0.63332942        8 
O       1.97146993      -1.34628509       1.41752308        8 
C       3.06143756      -1.59135637      -0.99674889        6 
C      -3.13744099      -1.91261096      -0.63763376        6 
C      -1.33758092       1.67518249       0.27461840        6 
C      -1.05017117       1.48208430      -1.21037793        6 
C       0.26836507       1.62070869      -1.38322321        6 
C       0.87794265       1.95670035      -0.03275077        6 
C      -0.28597705       2.75261269       0.60889429        6 
H       3.92944455      -1.67187519      -0.34069724        1 
H      -3.13049030      -2.74865870       0.06347644        1 
H       0.83724235       1.43392522      -2.28286235        1 
H       3.37242580      -1.41017322      -2.02357405        1 
H       2.46961819      -2.50496160      -0.92601932        1 
H      -4.15784392      -1.61539608      -0.87013187        1 
H      -2.60528167      -2.20252151      -1.54503012        1 
H       1.86009256       2.42606421      -0.05026721        1 
H      -2.37186647       1.87088014       0.54628686        1 
H      -0.48643483       3.69522187       0.09713779        1 
H      -0.15629588       2.93297544       1.68006002        1 
H      -1.77923645       1.15780299      -1.94002489        1 
H      -1.03728227       0.32587659       2.02567503        1 
H       1.11736415       1.00826621       1.88312700        1 
