29
Lattice="0.0 0.0 0.0 0.0 0.0 0.0 0.0 0.0 0.0" Properties=species:S:1:pos:R:3:Z:I:1 pbc="F F F"
C      -0.73804293       0.57844752      -0.91818898        6 
C      -0.40257838      -0.95047097      -0.68935329        6 
C       0.09975171       1.64019836      -0.22729558        6 
C       0.85480679      -1.27997805       0.08716339        6 
O       1.41237865       1.33791968      -0.22141958        8 
O      -0.34155814       2.67412543       0.21267507        8 
O       1.88600103      -1.50000188      -0.75699893        8 
O       0.94026796      -1.40796541       1.28450756        8 
C       3.15629605      -1.76249506      -0.14044090        6 
C       2.28073690       2.29703913       0.41088083        6 
C      -2.24805798       0.66146715      -0.48308581        6 
C      -2.25826911       0.48986187       1.02930427        6 
C      -1.93174667      -0.78040189       1.29006567        6 
C      -1.72728192      -1.48668959      -0.04310041        6 
C      -2.75191541      -0.73091474      -0.92160108        6 
H       3.45005243      -0.92254792       0.49155704        1 
H       2.01359495       2.41159003       1.46216857        1 
H      -1.73137155      -1.22503923       2.25367564        1 
H       3.85895249      -1.88705759      -0.96170151        1 
H       3.11083929      -2.66791207       0.46681757        1 
H       3.28369728       1.88790452       0.31245586        1 
H       2.20855097       3.26407499      -0.08844890        1 
H      -1.78253732      -2.57479823      -0.02745990        1 
H      -2.76079251       1.53630552      -0.87656399        1 
H      -3.78299836      -0.91494261      -0.61707707        1 
H      -2.64188011      -0.92686796      -1.99294271        1 
H      -2.37837636       1.29927294       1.73486374        1 
H      -0.64080053       0.79317837      -1.98806929        1 
H      -0.27885266      -1.40852592      -1.67215227        1 
