29
Lattice="0.0 0.0 0.0 0.0 0.0 0.0 0.0 0.0 0.0" Properties=species:S:1:pos:R:3:Z:I:1 pbc="F F F"
C      -0.73367139       0.63077105       0.76151029        6 
C       0.80837424       0.48038435       1.03709298        6 
C      -1.42718095      -0.51344032       0.06184572        6 
C       1.40832237      -0.87669007       0.71492116        6 
O      -2.74340106      -0.51619645       0.37502502        8 
O      -0.93202876      -1.29569554      -0.71210234        8 
O       2.01130575      -0.93211104      -0.48278422        8 
O       1.40003543      -1.79511899       1.50178613        8 
C       2.45581112      -2.23299135      -0.90484290        6 
C      -3.54716848      -1.51726850      -0.27688307        6 
C      -0.80824731       1.97871047      -0.06728082        6 
C      -0.14789741       1.72818213      -1.41006957        6 
C       1.16290894       1.58669332      -1.19310557        6 
C       1.40361445       1.73895527       0.30007761        6 
C       0.30787789       2.77566664       0.64569626        6 
H       3.15678575      -2.65628404      -0.18439175        1 
H      -3.20562759      -2.51647311      -0.00258818        1 
H       1.91558635       1.29617600      -1.91034012        1 
H       2.93877218      -2.07619217      -1.86721704        1 
H       1.59450506      -2.89390100      -1.01273231        1 
H      -4.56185371      -1.34877008       0.07714380        1 
H      -3.49446895      -1.40446157      -1.36093544        1 
H       2.42485961       1.96682641       0.60225292        1 
H      -1.80953831       2.40652319      -0.08236785        1 
H       0.48565424       3.74584121       0.17960829        1 
H       0.14129738       2.90225588       1.71958932        1 
H      -0.67730906       1.56865959      -2.33990640        1 
H      -1.25661675       0.78655819       1.70600597        1 
H       0.96092123       0.59317547       2.11146127        1 
