29
Lattice="0.0 0.0 0.0 0.0 0.0 0.0 0.0 0.0 0.0" Properties=species:S:1:pos:R:3:Z:I:1 pbc="F F F"
C      -0.80283461       0.52355507       0.82273633        6 
C       0.75296737       0.31128550       0.95645726        6 
C      -1.71016502      -0.65057721       0.51153232        6 
C       1.39619426      -0.88609724       0.25955881        6 
O      -2.60813459      -0.33241342      -0.45372635        8 
O      -1.67362837      -1.72270528       1.05340138        8 
O       2.67786402      -0.58578272      -0.08456265        8 
O       0.93532777      -1.98585033       0.11199288        8 
C       3.42864626      -1.65630076      -0.68316888        6 
C      -3.54364167      -1.37048027      -0.80059939        6 
C      -0.93158325       1.83206333      -0.01725169        6 
C      -0.27772154       1.59698329      -1.36813652        6 
C       1.04347576       1.52812659      -1.17121162        6 
C       1.28865309       1.66881096       0.32812919        6 
C       0.16667117       2.66352012       0.68621760        6 
H       3.48180954      -2.51260462      -0.00929469        1 
H      -4.15904270      -1.63408274       0.06138752        1 
H       1.80537630       1.28415086      -1.89807747        1 
H       4.42047491      -1.24813345      -0.86608745        1 
H       2.96459395      -1.96983137      -1.62017457        1 
H      -4.15815510      -0.95355151      -1.59573879        1 
H      -3.01338421      -2.25899175      -1.14584223        1 
H       2.30356685       1.91368741       0.62933692        1 
H      -1.94165575       2.23521628      -0.03236369        1 
H       0.31895631       3.63942595       0.22262946        1 
H       0.00287622       2.78628421       1.76100328        1 
H      -0.81764960       1.42467709      -2.28919439        1 
H      -1.13723118       0.78457702       1.83573418        1 
H       1.03030548       0.22693374       2.01004519        1 
