29
Lattice="0.0 0.0 0.0 0.0 0.0 0.0 0.0 0.0 0.0" Properties=species:S:1:pos:R:3:Z:I:1 pbc="F F F"
C       0.95546110      -0.68521687      -0.81422936        6 
C       0.51617317       0.82309006      -0.98423907        6 
C      -0.06286438      -1.73213939      -0.42235263        6 
C      -0.95214600       1.14197057      -0.77263987        6 
O      -0.88904592      -1.33569734       0.56465114        8 
O      -0.12270167      -2.82455282      -0.93592105        8 
O      -1.26229364       1.52431832       0.47770730        8 
O      -1.75810872       1.13055100      -1.67513444        8 
C      -2.65312399       1.78495169       0.72688344        6 
C      -1.89140493      -2.28433103       0.97301303        6 
C       2.19033574      -0.57602176       0.16428316        6 
C       1.69639749      -0.09261478       1.51582835        6 
C       1.32788717       1.18393288       1.37636926        6 
C       1.56118960       1.57703663      -0.07431244        6 
C       2.81955626       0.72874915      -0.38116781        6 
H      -3.01162026       2.60372112       0.10125092        1 
H      -1.42575492      -3.20140071       1.33661101        1 
H       0.83614687       1.80631797       2.10889127        1 
H      -2.71448168       2.05002384       1.78026640        1 
H      -3.24595474       0.89222350       0.52023581        1 
H      -2.44485438      -1.79306969       1.77042665        1 
H      -2.54967627      -2.52363956       0.13646951        1 
H       1.61414270       2.64505782      -0.28216588        1 
H       2.80542840      -1.47477933       0.15764446        1 
H       3.68835426       1.04366209       0.19798423        1 
H       3.07783600       0.68341650      -1.44350349        1 
H       1.56351621      -0.72118541       2.38589927        1 
H       1.33063803      -1.04029161      -1.77447116        1 
H       0.69356670       1.09429598      -2.02561325        1 
