29
Lattice="0.0 0.0 0.0 0.0 0.0 0.0 0.0 0.0 0.0" Properties=species:S:1:pos:R:3:Z:I:1 pbc="F F F"
C       0.86943780      -0.76063929      -0.82387334        6 
C       0.60435883       0.79280293      -0.96865892        6 
C      -0.27192065      -1.69625466      -0.49211853        6 
C      -0.80730705       1.30534586      -0.75193782        6 
O      -0.95653747      -1.34660745       0.61263808        8 
O      -0.53658679      -2.67612368      -1.14955348        8 
O      -1.13201286       1.50774391       0.53581772        8 
O      -1.55010669       1.58173196      -1.66675739        8 
C      -2.47103442       1.96522162       0.78528739        6 
C      -2.06259115      -2.19524203       0.96781217        6 
C       2.09802387      -0.80919993       0.16990250        6 
C       1.65494350      -0.28873069       1.52462549        6 
C       1.44114799       1.02419526       1.40138914        6 
C       1.72882652       1.40501402      -0.04209207        6 
C       2.87793033       0.41774533      -0.35637529        6 
H      -2.64725228       2.92730340       0.30183597        1 
H      -1.71643639      -3.20735192       1.18261941        1 
H       1.02101105       1.69011549       2.14032767        1 
H      -2.54790792       2.05788543       1.86661167        1 
H      -3.19468220       1.23928404       0.41044333        1 
H      -2.49902010      -1.74247988       1.85565651        1 
H      -2.79045890      -2.23178209       0.15561581        1 
H       1.90809219       2.46173255      -0.23755873        1 
H       2.60601176      -1.77279708       0.15561364        1 
H       3.77609803       0.62318968       0.22771052        1 
H       3.13366071       0.35570681      -1.41842043        1 
H       1.44029130      -0.90793339       2.38450600        1 
H       1.21799411      -1.12594544      -1.79018971        1 
H       0.81895452       1.06061929      -2.00332566        1 
