29
Lattice="0.0 0.0 0.0 0.0 0.0 0.0 0.0 0.0 0.0" Properties=species:S:1:pos:R:3:Z:I:1 pbc="F F F"
C       0.17516814       0.85957685       0.75166873        6 
C       0.89776694      -0.53314990       0.80412192        6 
C      -1.08839466       1.02395922      -0.06931044        6 
C       0.25719939      -1.81360742       0.30945512        6 
O      -2.06166791       1.58665519       0.69007258        8 
O      -1.24422084       0.74564120      -1.23100571        8 
O      -1.06469006      -1.71183788       0.10226425        8 
O       0.85773953      -2.86215429       0.25763721        8 
C      -1.74550568      -2.91376188      -0.30045671        6 
C      -3.31665465       1.81891642       0.02735563        6 
C       1.32984646       1.77594648       0.14743595        6 
C       1.56129725       1.32206503      -1.28636724        6 
C       2.14954022       0.12216458      -1.24144595        6 
C       2.32514625      -0.24516674       0.21923191        6 
C       2.56638668       1.15264697       0.83160309        6 
H      -1.29304203      -3.32153791      -1.20498630        1 
H      -3.73097698       0.87952402      -0.34256108        1 
H       2.35451085      -0.53928197      -2.07249159        1 
H      -2.77313363      -2.61234186      -0.49019890        1 
H      -1.70180318      -3.66169070       0.49321821        1 
H      -3.96817966       2.25415580       0.78213953        1 
H      -3.18788882       2.50554883      -0.81102850        1 
H       3.03887798      -1.03365184       0.44579532        1 
H       1.15015497       2.83984387       0.29834432        1 
H       3.49929530       1.60202221       0.48854750        1 
H       2.52358997       1.17190915       1.92481426        1 
H       1.18456737       1.83056356      -2.16218836        1 
H      -0.04897991       1.18822499       1.76500746        1 
H       1.03949841      -0.76006357       1.86809333        1 
