29
Lattice="0.0 0.0 0.0 0.0 0.0 0.0 0.0 0.0 0.0" Properties=species:S:1:pos:R:3:Z:I:1 pbc="F F F"
C      -0.45029210       0.86632345      -0.95686323        6 
C      -0.98016885      -0.61343156      -0.81715996        6 
C       1.02460388       1.16233046      -0.74213065        6 
C      -0.07836327      -1.76391750      -0.42903225        6 
O       1.37258247       1.34553486       0.54244416        8 
O       1.79356447       1.33956546      -1.66003446        8 
O       0.94148087      -1.42052798       0.37529736        8 
O      -0.28106913      -2.89934174      -0.79306012        8 
C       1.81320082      -2.49043343       0.78458177        6 
C       2.76048645       1.62530586       0.78361235        6 
C      -1.45098971       1.66046267      -0.02381038        6 
C      -1.23751793       1.21199498       1.41423246        6 
C      -1.68888889      -0.04126467       1.51978917        6 
C      -2.21566729      -0.45242616       0.15728761        6 
C      -2.76050255       0.90247527      -0.34999846        6 
H       1.25977668      -3.23314604       1.36105322        1 
H       3.06176012       2.54698337       0.28351310        1 
H      -1.59678131      -0.70169065       2.37172503        1 
H       2.57786187      -2.02047346       1.39913125        1 
H       2.25930368      -2.97181606      -0.08671902        1 
H       2.85246195       1.72519647       1.86312925        1 
H       3.38085504       0.80447960       0.41962361        1 
H      -2.88232967      -1.31264686       0.12478417        1 
H      -1.43595589       2.73508738      -0.20177572        1 
H      -3.60620260       1.25594821       0.24126110        1 
H      -3.02367896       0.90392795      -1.41196243        1 
H      -0.70570081       1.78024884       2.16255425        1 
H      -0.62293301       1.17135934      -1.98903310        1 
H      -1.37804282      -0.91995797      -1.78583567        1 
