29
Lattice="0.0 0.0 0.0 0.0 0.0 0.0 0.0 0.0 0.0" Properties=species:S:1:pos:R:3:Z:I:1 pbc="F F F"
C      -0.80543677       0.52190807       0.79374252        6 
C       0.73769386       0.29788965       0.94862597        6 
C      -1.70905769      -0.66277177       0.52163703        6 
C       1.37498671      -0.85176278       0.17295388        6 
O      -2.67168969      -0.34863523      -0.37856874        8 
O      -1.62046656      -1.73906848       1.05066457        8 
O       2.71092569      -0.62447427       0.05204252        8 
O       0.85790773      -1.86619467      -0.21050570        8 
C       3.46056701      -1.65598011      -0.61282894        6 
C      -3.61015550      -1.39915438      -0.67798725        6 
C      -0.92044824       1.82207940      -0.06177568        6 
C      -0.21831345       1.59316604      -1.38957998        6 
C       1.09660639       1.53950862      -1.14940494        6 
C       1.28940621       1.67390637       0.35858906        6 
C       0.14970979       2.66147891       0.67821912        6 
H       3.36479910      -2.60455445      -0.08223008        1 
H      -4.15410627      -1.69330377       0.22123061        1 
H       1.88372638       1.30392373      -1.85248134        1 
H       4.49359130      -1.31449494      -0.60622786        1 
H       3.10616516      -1.78478752      -1.63733156        1 
H      -4.29001820      -0.97934985      -1.41642904        1 
H      -3.08893527      -2.26851130      -1.08105986        1 
H       2.29196446       1.91885591       0.69822898        1 
H      -1.93226661       2.21776128      -0.11035169        1 
H       0.31290271       3.63757000       0.21871213        1 
H      -0.05194097       2.78491038       1.74629135        1 
H      -0.72363572       1.41650706      -2.32947052        1 
H      -1.14581267       0.80932094       1.79853843        1 
H       1.01559999       0.16894454       1.99633553        1 
