29
Lattice="0.0 0.0 0.0 0.0 0.0 0.0 0.0 0.0 0.0" Properties=species:S:1:pos:R:3:Z:I:1 pbc="F F F"
C      -0.68103873       0.60596852      -0.98435019        6 
C      -0.59965335      -0.94471075      -0.72727072        6 
C       0.48073656       1.47636972      -0.55397559        6 
C       0.64200868      -1.52858659      -0.08974026        6 
O       0.79410505       1.33398561       0.74974724        8 
O       1.04870723       2.24822750      -1.28968871        8 
O       1.76244303      -0.98900816      -0.61356883        8 
O       0.64991732      -2.45287962       0.68624966        8 
C       3.01047046      -1.52515122      -0.14046906        6 
C       1.92341172       2.09162183       1.21347683        6 
C      -2.06223495       0.96525655      -0.29359435        6 
C      -1.92968772       0.71887953       1.20174658        6 
C      -1.85287971      -0.60233096       1.39095502        6 
C      -1.93441468      -1.26424568       0.02501326        6 
C      -2.88081304      -0.28203315      -0.70326261        6 
H       3.10319808      -1.37664629       0.93672005        1 
H       1.74946349       3.16120059       1.08688895        1 
H      -1.64272816      -1.12566540       2.31310521        1 
H       3.78193811      -0.97336938      -0.67292821        1 
H       3.07715588      -2.59142756      -0.36168522        1 
H       2.02738698       1.84116794       2.26711157        1 
H       2.82042119       1.80835159       0.65977685        1 
H      -2.19165152      -2.32122624       0.01290699        1 
H      -2.44317726       1.94011160      -0.59584145        1 
H      -3.88682776      -0.27859097      -0.28136582        1 
H      -2.93466707      -0.43725638      -1.78549050        1 
H      -1.79755075       1.49438408       1.94299160        1 
H      -0.77502211       0.78844411      -2.05411845        1 
H      -0.63081259      -1.43210698      -1.70951336        1 
