29
Lattice="0.0 0.0 0.0 0.0 0.0 0.0 0.0 0.0 0.0" Properties=species:S:1:pos:R:3:Z:I:1 pbc="F F F"
C      -0.86401286       0.60975105      -0.82337384        6 
C      -0.23186386      -0.82571766      -0.77095123        6 
C      -0.11591187       1.75086083      -0.16896760        6 
C       1.01546169      -1.00193269       0.06506723        6 
O       1.17954760       1.75858278      -0.54590376        8 
O      -0.62219059       2.61960595       0.49751451        8 
O       1.90423466      -1.79517512      -0.57677293        8 
O       1.20537209      -0.55871608       1.17112375        8 
C       3.11915424      -2.08419663       0.13754611        6 
C       2.00017329       2.78869328       0.03268992        6 
C      -2.32194238       0.39401492      -0.29317125        6 
C      -2.21457941       0.01704897       1.17463249        6 
C      -1.69038511      -1.21137201       1.23567315        6 
C      -1.44080693      -1.67947337      -0.19003162        6 
C      -2.61751025      -0.98944254      -0.91713233        6 
H       3.65157629      -1.16095985       0.37143889        1 
H       1.98205694       2.71424543       1.12062835        1 
H      -1.36589919      -1.73808938       2.12224757        1 
H       3.70815672      -2.70785134      -0.53148433        1 
H       2.90121186      -2.61591057       1.06531161        1 
H       3.00344041       2.60700448      -0.34661108        1 
H       1.64702935       3.77548661      -0.27095344        1 
H      -1.31235888      -2.75087363      -0.34028509        1 
H      -2.99350059       1.21467188      -0.53605082        1 
H      -3.58572022      -1.38952454      -0.61254180        1 
H      -2.53403574      -1.01299483      -2.00836339        1 
H      -2.40284884       0.69381202       1.99554820        1 
H      -0.91736429       0.89897574      -1.87947227        1 
H      -0.00906557      -1.17447517      -1.77832034        1 
