29
Lattice="0.0 0.0 0.0 0.0 0.0 0.0 0.0 0.0 0.0" Properties=species:S:1:pos:R:3:Z:I:1 pbc="F F F"
C      -0.79081710      -0.17811155      -0.78542700        6 
C       0.65321022      -0.79761147      -0.79813097        6 
C      -1.00922832       1.11455936      -0.03605582        6 
C       1.73354476      -0.08904936       0.00258946        6 
O      -2.12880243       1.72235368      -0.50036626        8 
O      -0.34572803       1.55954070       0.86580896        8 
O       2.34729830       0.83694059      -0.77133878        8 
O       2.01576540      -0.27420330       1.15757051        8 
C       3.30888357       1.66876122      -0.09624132        6 
C      -2.50479857       2.94304312       0.16219635        6 
C      -1.68204044      -1.37152591      -0.24571102        6 
C      -1.27772446      -1.63488964       1.19278139        6 
C      -0.05085355      -2.16604980       1.17532576        6 
C       0.38674645      -2.26354624      -0.28027382        6 
C      -0.97447773      -2.54724064      -0.95676693        6 
H       2.82724196       2.20712457       0.72125817        1 
H      -1.71043243       3.68580961       0.07337946        1 
H       0.58449089      -2.37269358       2.02267253        1 
H       3.67655622       2.36014676      -0.85158510        1 
H       4.12589059       1.06453029       0.30122820        1 
H      -3.40506725       3.28284743      -0.34523575        1 
H      -2.70564507       2.75868789       1.21882780        1 
H       1.20667324      -2.94858699      -0.49183226        1 
H      -2.74220837      -1.22239005      -0.44424323        1 
H      -1.38975759      -3.51502827      -0.67206026        1 
H      -0.95793965      -2.45644752      -2.04748006        1 
H      -1.84093720      -1.32045550       2.06117658        1 
H      -1.09648915       0.01444877      -1.81580735        1 
H       0.99545455      -0.83254162      -1.83345361        1 
