29
Lattice="0.0 0.0 0.0 0.0 0.0 0.0 0.0 0.0 0.0" Properties=species:S:1:pos:R:3:Z:I:1 pbc="F F F"
C       0.30659325       1.09005929       0.58346689        6 
C       0.71039247      -0.35135547       1.04107659        6 
C      -1.07569634       1.37365375       0.04537661        6 
C       0.04167664      -1.58172103       0.44528267        6 
O      -2.02379924       0.83795818       0.84315762        8 
O      -1.32159826       2.14303859      -0.85246543        8 
O      -0.95588805      -1.31799459      -0.41409398        8 
O       0.46457255      -2.69893845       0.63669786        8 
C      -1.50713662      -2.44672699      -1.11614177        6 
C      -3.38639918       1.07626351       0.45589080        6 
C       1.51516575       1.58072673      -0.26811766        6 
C       1.67560573       0.64433727      -1.45317139        6 
C       2.12307065      -0.52643073      -0.98671144        6 
C       2.22570960      -0.40561330       0.52979014        6 
C       2.65521991       1.07067698       0.64841797        6 
H      -0.73666200      -2.93243191      -1.71717674        1 
H      -3.58178365       0.63837372      -0.52498592        1 
H       2.26289201      -1.44639377      -1.53887521        1 
H      -2.28771389      -2.03699507      -1.75330171        1 
H      -1.92242661      -3.16916190      -0.41231218        1 
H      -3.99444455       0.58973241       1.21566349        1 
H      -3.59869836       2.14580420       0.41946766        1 
H       2.81585820      -1.16356685       1.03837999        1 
H       1.47496592       2.64388484      -0.49417106        1 
H       3.64551863       1.24420713       0.22510671        1 
H       2.61166727       1.46840377       1.66662082        1 
H       1.38050719       0.88243907      -2.46596230        1 
H       0.31235479       1.69567216       1.49911326        1 
H       0.66769407      -0.45320711       2.12603146        1 
