29
Lattice="0.0 0.0 0.0 0.0 0.0 0.0 0.0 0.0 0.0" Properties=species:S:1:pos:R:3:Z:I:1 pbc="F F F"
C      -0.36067752      -0.96453496       0.70244170        6 
C      -0.77307225       0.54146136       0.93396747        6 
C       0.91959038      -1.25455966      -0.05479084        6 
C       0.02432277       1.67645551       0.31897598        6 
O       1.94320955      -1.44411016       0.80775235        8 
O       1.03339059      -1.36719730      -1.25057756        8 
O       1.30000841       1.35298800       0.04667390        8 
O      -0.42774978       2.78466676       0.15163744        8 
C       2.10436606       2.38225868      -0.55902913        6 
C       3.22848966      -1.67803274       0.21014522        6 
C      -1.64366195      -1.55226777       0.00794729        6 
C      -1.82089792      -0.84391371      -1.32729554        6 
C      -2.20490080       0.41151951      -1.07178768        6 
C      -2.26917536       0.56881758       0.43789665        6 
C      -2.73311598      -0.84477341       0.84623404        6 
H       1.66306628       2.69622276      -1.50561060        1 
H       3.50683815      -0.83893607      -0.42961566        1 
H      -2.32671623       1.22069905      -1.77858016        1 
H       3.07847080       1.92767288      -0.72443280        1 
H       2.18716281       3.24231978       0.10647858        1 
H       3.92435639      -1.77273223       1.04116014        1 
H       3.21528486      -2.59251627      -0.38506860        1 
H      -2.82534901       1.42325891       0.81556429        1 
H      -1.65245834      -2.64142648      -0.01918610        1 
H      -3.74176720      -1.06784959       0.49543767        1 
H      -2.66027874      -1.04342149       1.91998702        1 
H      -1.56347632      -1.27087033      -2.28520513        1 
H      -0.24505521      -1.42694234       1.68395702        1 
H      -0.74637004       0.74077841       2.01074174        1 
