29
Lattice="0.0 0.0 0.0 0.0 0.0 0.0 0.0 0.0 0.0" Properties=species:S:1:pos:R:3:Z:I:1 pbc="F F F"
C      -1.09030217       0.10890444      -0.95320467        6 
C       0.06352965      -0.95411230      -0.88332167        6 
C      -0.92417007       1.49766132      -0.36200062        6 
C       1.48193479      -0.44915819      -0.72376025        6 
O       0.23746939       1.69256706       0.27894978        8 
O      -1.81650093       2.31435344      -0.37927988        8 
O       2.11380602      -1.02047301       0.32337851        8 
O       2.00834745       0.33740653      -1.47145558        8 
C       3.47515486      -0.60593172       0.53591857        6 
C       0.39894062       2.96334340       0.93253473        6 
C      -2.22721737      -0.61922740      -0.10327970        6 
C      -1.75378715      -0.55632997       1.34420527        6 
C      -0.70774973      -1.38215185       1.45883753        6 
C      -0.48639541      -2.03542679       0.10424537        6 
C      -1.94263445      -2.10137268      -0.41628376        6 
H       4.09022549      -0.85067310      -0.33142422        1 
H      -0.35411834       3.08496803       1.71275099        1 
H      -0.05279349      -1.50189530       2.31033940        1 
H       3.81282645      -1.15434196       1.41264649        1 
H       3.52003688       0.46977317       0.71310545        1 
H       1.39850718       2.94280919       1.36065774        1 
H       0.30584049       3.77585237       0.21117221        1 
H       0.09258494      -2.95689748       0.10050798        1 
H      -3.22017506      -0.22750745      -0.31057848        1 
H      -2.57123946      -2.77513752       0.16826025        1 
H      -2.01885234      -2.35465903      -1.47813991        1 
H      -2.12672174       0.14195067       2.08188772        1 
H      -1.42927934       0.24736056      -1.98040642        1 
H       0.09284663      -1.41893787      -1.87592494        1 
