29
Lattice="0.0 0.0 0.0 0.0 0.0 0.0 0.0 0.0 0.0" Properties=species:S:1:pos:R:3:Z:I:1 pbc="F F F"
C      -0.63968490       0.54414315      -1.02049564        6 
C      -0.54636896      -1.01378794      -0.71748893        6 
C       0.57740464       1.37715803      -0.67122508        6 
C       0.62852146      -1.50715826       0.10758004        6 
O       0.53437967       1.87573275       0.58201030        8 
O       1.51228085       1.54580755      -1.41523899        8 
O       1.78882463      -1.28118082      -0.53637205        8 
O       0.55901938      -2.07129475       1.17282402        8 
C       2.98924442      -1.70134101       0.13480430        6 
C       1.69247445       2.61581442       1.00715015        6 
C      -2.02823005       0.92169448      -0.39596572        6 
C      -1.98113513       0.69325269       1.10681818        6 
C      -1.93449959      -0.62570029       1.31545681        6 
C      -1.93645153      -1.30391304      -0.04851861        6 
C      -2.83527074      -0.32435842      -0.83742578        6 
H       3.06616517      -1.22364114       1.11292749        1 
H       1.85611853       3.47905641       0.36037962        1 
H      -1.79082408      -1.14089446       2.25343525        1 
H       3.80476369      -1.38687680      -0.51212170        1 
H       2.99389277      -2.78487721       0.26500422        1 
H       1.47608993       2.93281376       2.02496000        1 
H       2.57812721       1.97870913       0.98312594        1 
H      -2.20536361      -2.35892702      -0.06203947        1 
H      -2.39146877       1.89446974      -0.72692575        1 
H      -3.86206845      -0.31203725      -0.46948830        1 
H      -2.83244919      -0.49068877      -1.91955156        1 
H      -1.89127584       1.47818143       1.84337639        1 
H      -0.71417904       0.64771715      -2.10456473        1 
H      -0.46937724      -1.53095926      -1.67778341        1 
