29
Lattice="0.0 0.0 0.0 0.0 0.0 0.0 0.0 0.0 0.0" Properties=species:S:1:pos:R:3:Z:I:1 pbc="F F F"
C      -1.04075935       0.47270235      -0.86178660        6 
C      -0.29545392      -0.91460856      -0.93306463        6 
C      -0.36713366       1.71663960      -0.31736278        6 
C       1.20642889      -0.93093929      -0.72720838        6 
O       0.86284474       1.51004134       0.17880963        8 
O      -0.91293995       2.79551819      -0.31015130        8 
O       1.57357763      -1.36213204       0.49537016        8 
O       1.99779705      -0.65605406      -1.59755143        8 
C       2.98698028      -1.38259195       0.75184210        6 
C       1.54129639       2.66253360       0.71004442        6 
C      -2.31235329       0.11947785       0.01695905        6 
C      -1.80080275      -0.12360503       1.42874068        6 
C      -1.11778827      -1.27303200       1.41383731        6 
C      -1.17360165      -1.82599053      -0.00317737        6 
C      -2.57464614      -1.33135483      -0.43672624        6 
H       3.49210082      -2.06737139       0.06875757        1 
H       0.99265930       3.06642096       1.56204556        1 
H      -0.53483373      -1.70232547       2.21542721        1 
H       3.09153521      -1.72078902       1.78071902        1 
H       3.40689940      -0.38307209       0.62983228        1 
H       2.52073942       2.30382849       1.01832170        1 
H       1.63727540       3.43232804      -0.05633758        1 
H      -0.95784728      -2.88764627      -0.11533602        1 
H      -3.11271395       0.84718623      -0.09706842        1 
H      -3.38121051      -1.80327011       0.12653668        1 
H      -2.76520040      -1.43157865      -1.50949262        1 
H      -1.88814090       0.58114190       2.24521004        1 
H      -1.37811664       0.75196856      -1.86226553        1 
H      -0.41031352      -1.27245279      -1.95876372        1 
