29
Lattice="0.0 0.0 0.0 0.0 0.0 0.0 0.0 0.0 0.0" Properties=species:S:1:pos:R:3:Z:I:1 pbc="F F F"
C       0.34566654       1.03612003       0.68212531        6 
C       0.74995136      -0.45789055       1.00876972        6 
C      -0.93578764       1.26670087      -0.09406456        6 
C      -0.17254130      -1.59964876       0.63980657        6 
O      -1.95678188       1.50298462       0.76769562        8 
O      -1.08709101       1.21775353      -1.28772219        8 
O      -0.57740082      -1.56452326      -0.63951209        8 
O      -0.48591632      -2.47585559       1.41369650        8 
C      -1.43992623      -2.62947429      -1.07450210        6 
C      -3.25796262       1.66201322       0.17440513        6 
C       1.62904685       1.57095167      -0.06436647        6 
C       1.74129578       0.83864966      -1.39075749        6 
C       2.07983311      -0.42638489      -1.12529439        6 
C       2.19744087      -0.56341232       0.37992900        6 
C       2.72793516       0.84304332       0.74316441        6 
H      -0.93321394      -3.59211344      -0.98817055        1 
H      -3.53859048       0.76019037      -0.37249313        1 
H       2.13377340      -1.24682116      -1.82733025        1 
H      -1.66835851      -2.40584751      -2.11418292        1 
H      -2.35201536      -2.65148265      -0.47594848        1 
H      -3.93817139       1.83150715       1.00631191        1 
H      -3.26725878       2.51250793      -0.50893306        1 
H       2.75038281      -1.42369890       0.75512208        1 
H       1.67228348       2.65874505      -0.10830609        1 
H       3.72671007       1.02449381       0.34434597        1 
H       2.70911026       1.05933375       1.81560549        1 
H       1.46381855       1.25297980      -2.34835448        1 
H       0.23287637       1.55750184       1.63308995        1 
H       0.85010125      -0.54757425       2.09051576        1 
