29
Lattice="0.0 0.0 0.0 0.0 0.0 0.0 0.0 0.0 0.0" Properties=species:S:1:pos:R:3:Z:I:1 pbc="F F F"
C      -0.75224723       0.36036825       1.00344195        6 
C       0.75181179       0.72608792       0.72204191        6 
C      -1.15091888      -1.05009963       0.62127194        6 
C       1.53885839      -0.28162644      -0.08537850        6 
O      -2.21245876      -1.09005289      -0.20415854        8 
O      -0.60198504      -2.03538713       1.05331084        8 
O       2.77631544      -0.44626323       0.42998298        8 
O       1.15463234      -0.84675024      -1.08011899        8 
C       3.62101244      -1.38801464      -0.25771191        6 
C      -2.62735575      -2.40084692      -0.63333640        6 
C      -1.54032739       1.56126289       0.37492563        6 
C      -1.33026418       1.52492314      -1.12839017        6 
C      -0.05731129       1.85224960      -1.36784778        6 
C       0.60800937       2.11735442      -0.02852322        6 
C      -0.58281044       2.71466063       0.75619884        6 
H       3.17642025      -2.38391537      -0.22645372        1 
H      -2.92761707      -3.00659571       0.22300935        1 
H       0.45950722       1.80833003      -2.31642451        1 
H       4.56742487      -1.37346195       0.27826839        1 
H       3.76194621      -1.08932906      -1.29758676        1 
H      -3.47084679      -2.23328365      -1.29962921        1 
H      -1.81149463      -2.89719360      -1.16003824        1 
H       1.53746201       2.68480342      -0.04590013        1 
H      -2.57137821       1.62802456       0.71777368        1 
H      -0.90420127       3.67679095       0.35417180        1 
H      -0.40205520       2.80375509       1.83183801        1 
H      -2.05787472       1.16397799      -1.84065858        1 
H      -0.88980216       0.38575884       2.08915185        1 
H       1.27903904       0.88524964       1.66152668        1 
