29
Lattice="0.0 0.0 0.0 0.0 0.0 0.0 0.0 0.0 0.0" Properties=species:S:1:pos:R:3:Z:I:1 pbc="F F F"
C      -0.78993198       0.53823205       0.89451260        6 
C       0.76886615       0.42249998       0.89184251        6 
C      -1.56918934      -0.72913642       0.61572789        6 
C       1.36878773      -0.70895146       0.08170563        6 
O      -2.50870335      -0.55402989      -0.33652247        8 
O      -1.39631960      -1.76722681       1.20393327        8 
O       2.71331523      -0.72184543       0.24802426        8 
O       0.78565472      -1.49468874      -0.62013721        8 
C       3.42389433      -1.74678444      -0.47048035        6 
C      -3.27962577      -1.72252997      -0.67296198        6 
C      -1.07523960       1.83882146       0.07740605        6 
C      -0.53950439       1.65266126      -1.33099622        6 
C       0.79585795       1.65726723      -1.26229171        6 
C       1.17671162       1.80648966       0.20510640        6 
C       0.03711516       2.73118617       0.68206724        6 
H       3.09196784      -2.73562485      -0.14997670        1 
H      -3.82941015      -2.08209699       0.19821355        1 
H       1.49202392       1.44335840      -2.06277621        1 
H       4.47357128      -1.59707017      -0.22748196        1 
H       3.25944667      -1.64589143      -1.54459876        1 
H      -3.96603496      -1.40274100      -1.45426494        1 
H      -2.62135927      -2.51288624      -1.03587020        1 
H       2.20191667       2.10090907       0.41755735        1 
H      -2.10291786       2.18623050       0.16205315        1 
H       0.08636892       3.71723064       0.21717406        1 
H      -0.02559739       2.83730456       1.76901865        1 
H      -1.15125568       1.44074604      -2.19674875        1 
H      -1.06911793       0.75721961       1.93227474        1 
H       1.17137485       0.36869255       1.90324758        1 
