29
Lattice="0.0 0.0 0.0 0.0 0.0 0.0 0.0 0.0 0.0" Properties=species:S:1:pos:R:3:Z:I:1 pbc="F F F"
C       0.30626837       1.02478858       0.69977389        6 
C       0.81181403      -0.44618010       0.96679865        6 
C      -1.00169691       1.22991326      -0.04107518        6 
C       0.02938561      -1.66713678       0.53439845        6 
O      -2.02535463       1.29766743       0.84516002        8 
O      -1.15986804       1.30856092      -1.23222276        8 
O      -0.85614799      -1.43002790      -0.44402327        8 
O       0.21889129      -2.76216357       1.01207539        8 
C      -1.58528946      -2.56278496      -0.94788529        6 
C      -3.34120504       1.40856547       0.27556726        6 
C       1.53108490       1.66193972      -0.06275987        6 
C       1.65642177       0.95955255      -1.40638155        6 
C       2.09102341      -0.28279042      -1.17278842        6 
C       2.25955773      -0.43341935       0.32753152        6 
C       2.69874737       0.99856446       0.70278777        6 
H      -0.89867836      -3.30061387      -1.36564514        1 
H      -3.55478150       0.54243752      -0.35332523        1 
H       2.18937950      -1.08735173      -1.88965740        1 
H      -2.23470132      -2.16251240      -1.72320944        1 
H      -2.16953846      -3.02640324      -0.15147720        1 
H      -4.02352004       1.44483878       1.12216727        1 
H      -3.42523366       2.31566984      -0.32490695        1 
H       2.87102168      -1.26415958       0.67487850        1 
H       1.49813835       2.75038479      -0.09068909        1 
H       3.67226492       1.25547141       0.28314704        1 
H       2.69322189       1.19443433       1.77917784        1 
H       1.32655618       1.37125314      -2.34819725        1 
H       0.19230794       1.51027351       1.66997565        1 
H       0.93007229      -0.57683316       2.04423343        1 
