29
Lattice="0.0 0.0 0.0 0.0 0.0 0.0 0.0 0.0 0.0" Properties=species:S:1:pos:R:3:Z:I:1 pbc="F F F"
C      -0.02162573       0.95551961       0.88217195        6 
C       1.07402945      -0.16900460       0.95694080        6 
C      -1.46730470       0.53824061       0.71914433        6 
C       0.85587026      -1.53715809       0.32857503        6 
O      -2.04761042       1.12039336      -0.35285101        8 
O      -2.05062361      -0.19979272       1.47339722        8 
O      -0.37245822      -1.73692821      -0.16841389        8 
O       1.75521354      -2.33786846       0.21067336        8 
C      -0.59403917      -2.98584912      -0.84713049        6 
C      -3.42585898       0.77935736      -0.58509250        6 
C       0.59331671       2.00800876      -0.09525487        6 
C       0.80810388       1.34591830      -1.44569329        6 
C       1.81399630       0.47397843      -1.31443672        6 
C       2.26216722       0.51182797       0.14189235        6 
C       2.04259852       2.00483331       0.44942798        6 
H       0.04038857      -3.05286512      -1.73259089        1 
H      -4.04351870       1.07471247       0.26443775        1 
H       2.16935962      -0.23862494      -2.04691788        1 
H      -1.64529560      -2.97895601      -1.12616540        1 
H      -0.37774643      -3.82398817      -0.18407133        1 
H      -3.71496257       1.32895447      -1.47843648        1 
H      -3.52824930      -0.29525929      -0.74474825        1 
H       3.23123000       0.07269662       0.36410364        1 
H       0.05642545       2.95459057      -0.10258843        1 
H       2.71107458       2.64628410      -0.12707844        1 
H       2.11271832       2.25746220       1.51161533        1 
H       0.17725560       1.49907889      -2.31025359        1 
H      -0.02747347       1.41769888       1.87626842        1 
H       1.37645730      -0.34471033       1.99041459        1 
