29
Lattice="0.0 0.0 0.0 0.0 0.0 0.0 0.0 0.0 0.0" Properties=species:S:1:pos:R:3:Z:I:1 pbc="F F F"
C      -0.78677500       0.38639192       1.04275549        6 
C       0.71293044       0.74538408       0.71616288        6 
C      -1.19077188      -1.03659340       0.70654205        6 
C       1.49547475      -0.29804715      -0.04599094        6 
O      -1.97652288      -1.13571267      -0.37687204        8 
O      -0.88215327      -1.98075122       1.39638608        8 
O       2.77417518      -0.34675328       0.38686970        8 
O       1.07609242      -0.98158905      -0.94862931        8 
C       3.62841419      -1.29330517      -0.28302992        6 
C      -2.31552251      -2.47137373      -0.79077884        6 
C      -1.57708842       1.56667322       0.37058459        6 
C      -1.38275954       1.48509418      -1.13440381        6 
C      -0.11375021       1.80682352      -1.39959846        6 
C       0.56585615       2.10955462      -0.07759899        6 
C      -0.61461839       2.73171471       0.70383714        6 
H       3.22736577      -2.30262015      -0.18063787        1 
H      -2.86810629      -2.98914109      -0.00528501        1 
H       0.39090794       1.73856177      -2.35359302        1 
H       4.59421025      -1.21133116       0.21032951        1 
H       3.71483217      -1.04716307      -1.34262767        1 
H      -2.93198588      -2.35078997      -1.67913823        1 
H      -1.40733666      -3.02754361      -1.02587416        1 
H       1.49729412       2.67230522      -0.12048695        1 
H      -2.60521810       1.64961640       0.72036158        1 
H      -0.94066294       3.68083038       0.27569678        1 
H      -0.41995160       2.85312891       1.77374374        1 
H      -2.11986483       1.10908158      -1.82799628        1 
H      -0.90718598       0.44951953       2.12607215        1 
H       1.25048740       0.94230829       1.64342910        1 
