29
Lattice="0.0 0.0 0.0 0.0 0.0 0.0 0.0 0.0 0.0" Properties=species:S:1:pos:R:3:Z:I:1 pbc="F F F"
C      -0.75698197       0.47020796      -0.99524176        6 
C      -0.42370369      -1.04150314      -0.69805226        6 
C       0.15739842       1.57916592      -0.52410347        6 
C       0.88644740      -1.34933350      -0.00453855        6 
O       0.88412095       1.25256785       0.55841199        8 
O       0.18797113       2.67166665      -1.04115230        8 
O       1.91673348      -1.15092957      -0.85920884        8 
O       1.02674420      -1.73624064       1.12790886        8 
C       3.23326400      -1.32190018      -0.30903550        6 
C       1.73223552       2.27817941       1.10173574        6 
C      -2.20602692       0.61869030      -0.36359180        6 
C      -2.05476706       0.48898806       1.14223806        6 
C      -1.74291283      -0.78374251       1.40747810        6 
C      -1.69347030      -1.53092127       0.08322627        6 
C      -2.78556801      -0.77196504      -0.70628963        6 
H       3.38748101      -0.62833361       0.51943447        1 
H       1.13547220       3.12913161       1.43348278        1 
H      -1.44850438      -1.20559255       2.35687097        1 
H       3.92035474      -1.10400797      -1.12392149        1 
H       3.37264554      -2.34355569       0.04752782        1 
H       2.23861945       1.81389313       1.94517219        1 
H       2.45113264       2.61435765       0.35297440        1 
H      -1.77253428      -2.61555598       0.13934433        1 
H      -2.73092461       1.49685632      -0.73512113        1 
H      -3.78381145      -0.91967756      -0.29166088        1 
H      -2.79267255      -0.99462803      -1.77791919        1 
H      -2.07006734       1.31777204       1.83752181        1 
H      -0.84149137       0.61801510      -2.07250229        1 
H      -0.37797885      -1.55343788      -1.66293395        1 
