29
Lattice="0.0 0.0 0.0 0.0 0.0 0.0 0.0 0.0 0.0" Properties=species:S:1:pos:R:3:Z:I:1 pbc="F F F"
C      -0.86521335       0.57925756      -0.81581922        6 
C      -0.23293741      -0.85606490      -0.74268027        6 
C      -0.13752670       1.77754277      -0.24530601        6 
C       1.01604430      -1.05111270       0.09260510        6 
O       1.19984871       1.64044421      -0.30831437        8 
O      -0.68574618       2.80425389       0.07825325        8 
O       1.97582773      -1.66646833      -0.63806002        8 
O       1.15987669      -0.75798378       1.25345800        8 
C       3.20892840      -1.93864042       0.05010115        6 
C       1.97882233       2.75197645       0.16893305        6 
C      -2.32503569       0.37730270      -0.28131896        6 
C      -2.21567531       0.02330923       1.19141956        6 
C      -1.69183948      -1.20431845       1.26996697        6 
C      -1.44601614      -1.69469073      -0.15035869        6 
C      -2.62353926      -1.01399250      -0.88400170        6 
H       3.65139150      -1.01171523       0.41839814        1 
H       1.76501139       2.93441066       1.22275483        1 
H      -1.36919570      -1.72046802       2.16271987        1 
H       3.85664065      -2.40651035      -0.68820305        1 
H       3.03769701      -2.61157602       0.89198880        1 
H       3.01678627       2.45503565       0.03674549        1 
H       1.75704609       3.65092463      -0.40803499        1 
H      -1.32250751      -2.76936597      -0.28127419        1 
H      -2.99004720       1.19836963      -0.53863782        1 
H      -3.59169394      -1.40781800      -0.57113179        1 
H      -2.54296408      -1.05189711      -1.97499301        1 
H      -2.40966830       0.70967609       2.00391322        1 
H      -0.93682165       0.83432603      -1.88110859        1 
H      -0.01357630      -1.21016386      -1.74874164        1 
