29
Lattice="0.0 0.0 0.0 0.0 0.0 0.0 0.0 0.0 0.0" Properties=species:S:1:pos:R:3:Z:I:1 pbc="F F F"
C      -0.67554015       0.58323614      -1.00994965        6 
C      -0.58343603      -0.97679861      -0.74311920        6 
C       0.54751617       1.40039788      -0.65167896        6 
C       0.61106230      -1.47112646       0.05021968        6 
O       0.68110415       1.58847163       0.67769036        8 
O       1.35010795       1.80207837      -1.45892706        8 
O       1.75670367      -1.20360337      -0.61005558        8 
O       0.57490664      -2.05030686       1.10770562        8 
C       2.97650653      -1.60236422       0.03933864        6 
C       1.86746575       2.28343042       1.10036940        6 
C      -2.05128917       0.95326915      -0.34549603        6 
C      -1.97550225       0.68849232       1.14965051        6 
C      -1.93111902      -0.63523622       1.32603352        6 
C      -1.96106868      -1.28041692      -0.05295249        6 
C      -2.87105514      -0.27929842      -0.80110047        6 
H       3.05590423      -1.13080333       1.02034076        1 
H       1.89345412       3.29001505       0.68025478        1 
H      -1.77033007      -1.17238752       2.24875716        1 
H       3.77570685      -1.26528226      -0.61665080        1 
H       3.00747383      -2.68639870       0.16055921        1 
H       1.80968562       2.32045943       2.18593538        1 
H       2.75842929       1.74110358       0.77952740        1 
H      -2.23446662      -2.33383747      -0.08722122        1 
H      -2.41498643       1.93515620      -0.64787132        1 
H      -3.89052898      -0.27189033      -0.41319727        1 
H      -2.88932093      -0.41888736      -1.88682299        1 
H      -1.86628851       1.45433444       1.90394226        1 
H      -0.77113079       0.72417604      -2.08712550        1 
H      -0.52481431      -1.47628680      -1.71410001        1 
