29
Lattice="0.0 0.0 0.0 0.0 0.0 0.0 0.0 0.0 0.0" Properties=species:S:1:pos:R:3:Z:I:1 pbc="F F F"
C       0.51606677       1.01521344       0.65235731        6 
C       0.67725864      -0.50369645       0.99990022        6 
C      -0.78438559       1.57895746       0.12664559        6 
C      -0.33456435      -1.53117424       0.53856671        6 
O      -1.85314317       0.86675356       0.53494421        8 
O      -0.87636132       2.65076393      -0.42368353        8 
O      -0.78543230      -1.32932740      -0.71321879        8 
O      -0.62477424      -2.50506964       1.19492747        8 
C      -1.72109431      -2.29860333      -1.21229535        6 
C      -3.14461848       1.40130529       0.19453083        6 
C       1.80661240       1.37000520      -0.15648184        6 
C       1.76972431       0.58723431      -1.45511013        6 
C       1.95538925      -0.70216818      -1.15514064        6 
C       2.10609541      -0.80858915       0.35442655        6 
C       2.82768475       0.52661363       0.64514008        6 
H      -1.27018131      -3.29190082      -1.24015550        1 
H      -3.25632523       1.45971740      -0.88931325        1 
H       1.88241990      -1.54545892      -1.82823893        1 
H      -1.97593395      -1.96528024      -2.21623134        1 
H      -2.61047348      -2.32881728      -0.58039443        1 
H      -3.86557476       0.70484348       0.61705889        1 
H      -3.27298521       2.39649081       0.62278781        1 
H       2.55191838      -1.72490897       0.73788513        1 
H       1.97820329       2.44066508      -0.23821627        1 
H       3.82845200       0.55793732       0.21183165        1 
H       2.87551000       0.78129423       1.70800702        1 
H       1.51815072       1.00769387      -2.41939524        1 
H       0.59837781       1.54854729       1.60924113        1 
H       0.74528632      -0.63833645       2.07815384        1 
