29
Lattice="0.0 0.0 0.0 0.0 0.0 0.0 0.0 0.0 0.0" Properties=species:S:1:pos:R:3:Z:I:1 pbc="F F F"
C      -0.68250608       0.56710088      -0.98867128        6 
C      -0.56621286      -0.97063766      -0.69281207        6 
C       0.41734752       1.50086921      -0.52939019        6 
C       0.70717650      -1.53112814      -0.10117625        6 
O       0.79942044       1.28744733       0.74499193        8 
O       0.86312134       2.39270892      -1.21262408        8 
O       1.79851533      -0.94543850      -0.63731300        8 
O       0.76007366      -2.49043709       0.62964827        8 
C       3.07232273      -1.46699833      -0.22058066        6 
C       1.85162778       2.13091172       1.24036632        6 
C      -2.08807752       0.90193502      -0.32256676        6 
C      -1.94972264       0.71888696       1.18117903        6 
C      -1.82222128      -0.59019699       1.42108688        6 
C      -1.88113286      -1.30824521       0.08341428        6 
C      -2.86135611      -0.38810526      -0.68252775        6 
H       3.20233684      -1.33377962       0.85480617        1 
H       1.55993306       3.18092645       1.19139259        1 
H      -1.59399765      -1.06887632       2.36323564        1 
H       3.81378832      -0.89201602      -0.77089097        1 
H       3.15004649      -2.52798850      -0.46229664        1 
H       2.00811554       1.82277604       2.27196693        1 
H       2.76074076       1.98491769       0.65382866        1 
H      -2.10013676      -2.37329899       0.11340897        1 
H      -2.49904166       1.85096389      -0.66417164        1 
H      -3.86721596      -0.40219879      -0.26037941        1 
H      -2.90912424      -0.58806473      -1.75753477        1 
H      -1.84613564       1.52659380       1.89233210        1 
H      -0.75964675       0.73391178      -2.06206262        1 
H      -0.61707457      -1.47812524      -1.66492236        1 
