29
Lattice="0.0 0.0 0.0 0.0 0.0 0.0 0.0 0.0 0.0" Properties=species:S:1:pos:R:3:Z:I:1 pbc="F F F"
C      -0.77906907       0.55301094       0.81309516        6 
C       0.77775105       0.45964695       0.95505889        6 
C      -1.45009552      -0.52740133      -0.00340921        6 
C       1.38707712      -0.88636307       0.62437526        6 
O      -2.73867222      -0.67169246       0.38315565        8 
O      -0.95778706      -1.14888734      -0.91162149        8 
O       2.43492103      -0.78818405      -0.21601842        8 
O       0.99840956      -1.92886307       1.09186220        8 
C       3.03965904      -2.03559779      -0.60729303        6 
C      -3.51259358      -1.63363427      -0.35720127        6 
C      -0.94601640       1.95857876       0.08354994        6 
C      -0.40787241       1.78893647      -1.32818831        6 
C       0.91842395       1.65041073      -1.23949270        6 
C       1.29510047       1.74704332       0.22821467        6 
C       0.21889374       2.74453845       0.72401262        6 
H       3.43443851      -2.56014540       0.26416246        1 
H      -3.06693672      -2.62572684      -0.27215520        1 
H       1.60449517       1.39135629      -2.03327203        1 
H       3.84248093      -1.76665425      -1.29030675        1 
H       2.30238562      -2.66630728      -1.10557380        1 
H      -4.50280931      -1.61739954       0.09287928        1 
H      -3.56501303      -1.35331581      -1.41073560        1 
H       2.33590005       1.97793354       0.44585879        1 
H      -1.95134204       2.36540289       0.18005851        1 
H       0.33409704       3.73896138       0.29015186        1 
H       0.15331785       2.81862466       1.81364536        1 
H      -1.01922245       1.65559796      -2.21063806        1 
H      -1.26242669       0.59440152       1.78801578        1 
H       0.99849321       0.57593394       2.02237109        1 
