32
Lattice="0.0 0.0 0.0 0.0 0.0 0.0 0.0 0.0 0.0" Properties=species:S:1:pos:R:3:Z:I:1 pbc="F F F"
C       0.13973888       1.11551081       0.44557615        6 
C       0.55713211      -0.32656494       0.86865212        6 
C      -1.29939649       1.56185803       0.26080201        6 
C      -0.36726341      -1.49780757       0.57791680        6 
O      -2.19794888       0.58193238       0.06983010        8 
O      -1.59138513       2.74127186       0.25477843        8 
O      -0.77139327      -1.56152234      -0.70250926        8 
O      -0.67065930      -2.32071270       1.41796862        8 
C      -1.67588099      -2.63262071      -1.00213698        6 
C      -3.55681095       1.01927003      -0.10774905        6 
C       1.08261136       1.38700624      -0.78320268        6 
C       2.42541724       1.89077245      -0.22329636        6 
C       2.90539502       0.60049342       0.50483102        6 
C       1.87246993      -0.46024780       0.00621092        6 
O       1.43412056       0.08666977      -1.25015220        8 
H       0.46702153       1.78386937       1.24780712        1 
H       0.76586679      -0.38180764       1.93839342        1 
H      -2.58767543      -2.53887419      -0.40447671        1 
H      -3.63881135       1.65621516      -0.99253205        1 
H       3.09308975       2.14922243      -1.05000962        1 
H       2.32814895       2.76166839       0.43155753        1 
H       3.91722760       0.31696940       0.20188776        1 
H       2.89918830       0.69662040       1.59512333        1 
H      -1.90053801      -2.53612974      -2.06497504        1 
H      -1.21563298      -3.60250321      -0.79186073        1 
H      -3.89722291       1.58098132       0.76642721        1 
H      -4.14116789       0.10708718      -0.23165552        1 
H       0.63732049       1.97438911      -1.58619034        1 
C       2.41936720      -1.85981550      -0.17808073        6 
H       3.31388627      -1.82930905      -0.80763377        1 
H       2.68543856      -2.29549302       0.79025309        1 
H       1.68142539      -2.50456926      -0.66201361        1 
