32
Lattice="0.0 0.0 0.0 0.0 0.0 0.0 0.0 0.0 0.0" Properties=species:S:1:pos:R:3:Z:I:1 pbc="F F F"
C      -0.31525956       0.89573043      -0.91388592        6 
C      -0.44807946      -0.64782084      -0.59622651        6 
C       0.97534256       1.53695037      -0.42835559        6 
C       0.83290316      -1.26449061      -0.06282416        6 
O       1.02919348       1.63343506       0.90794121        8 
O       1.87452046       1.87863095      -1.17035610        8 
O       1.48959013      -1.89068516      -1.06811025        8 
O       1.25488252      -1.21430387       1.07190787        8 
C       2.76761491      -2.44398167      -0.71133021        6 
C       2.28549447       2.06831393       1.44840585        6 
C      -1.57973867       1.42440254      -0.17837096        6 
C      -2.84572300       0.99126481      -0.95517094        6 
C      -2.94849392      -0.50411689      -0.53421398        6 
C      -1.69120365      -0.66318774       0.36533923        6 
O      -1.62903827       0.62250017       1.00178576        8 
H      -0.34848585       1.07317982      -1.98987438        1 
H      -0.67925611      -1.17337585      -1.52478972        1 
H       2.65511707      -3.19453602       0.07613087        1 
H       2.55535843       3.05571414       1.06340563        1 
H      -3.71320724       1.56350951      -0.61585293        1 
H      -2.74749734       1.13444217      -2.03580929        1 
H      -3.84475466      -0.68596565       0.06622863        1 
H      -2.96150330      -1.19865317      -1.37976430        1 
H       3.15639563      -2.89601550      -1.62422362        1 
H       3.43691203      -1.65504316      -0.35662530        1 
H       3.06949315       1.35210154       1.18653592        1 
H       2.14190698       2.09640672       2.52842153        1 
H      -1.53073487       2.47849503       0.09709382        1 
C      -1.76293899      -1.76778121       1.39744067        6 
H      -2.66392022      -1.63909650       2.00518013        1 
H      -1.81372089      -2.74612042       0.90610319        1 
H      -0.88634525      -1.74130661       2.04583553        1 
