32
Lattice="0.0 0.0 0.0 0.0 0.0 0.0 0.0 0.0 0.0" Properties=species:S:1:pos:R:3:Z:I:1 pbc="F F F"
C      -0.46891028       1.02403526       0.80968766        6 
C       0.63977795      -0.08538064       0.74778441        6 
C      -1.88541389       0.61307874       0.43422179        6 
C       0.12820643      -1.49640499       0.48955089        6 
O      -2.00450528       0.35653048      -0.88393040        8 
O      -2.81214637       0.60438047       1.21421285        8 
O       1.15086639      -2.34975345       0.26788336        8 
O      -1.02640031      -1.86051535       0.53886282        8 
C       0.77277410      -3.72149205       0.05447284        6 
C      -3.28858583      -0.14296738      -1.28529927        6 
C       0.11984453       2.07638642      -0.17138940        6 
C       1.30717663       2.80007565       0.49756458        6 
C       2.39772212       1.69295678       0.42575944        6 
C       1.64151782       0.54438278      -0.30628773        6 
O       0.75369033       1.27188170      -1.16803303        8 
H      -0.55300943       1.41985636       1.82368797        1 
H       1.14648782      -0.15962650       1.71651270        1 
H       0.11579310      -3.80504156      -0.81569660        1 
H      -4.08168033       0.56258795      -1.02202528        1 
H       1.59173404       3.67584582      -0.09209600        1 
H       1.08346283       3.13413040       1.51535190        1 
H       3.24917627       2.01356469      -0.18126141        1 
H       2.77997552       1.39079009       1.40572042        1 
H       1.70676880      -4.25814305      -0.11468889        1 
H       0.25113814      -4.11678938       0.93041952        1 
H      -3.48052931      -1.10037566      -0.79250037        1 
H      -3.22888230      -0.27082285      -2.36696526        1 
H      -0.62547163       2.71989999      -0.63942284        1 
C       2.52187245      -0.35721457      -1.14568576        6 
H       3.12147831       0.26598523      -1.81669857        1 
H       3.18941419      -0.95224134      -0.51801739        1 
H       1.92071961      -1.03977088      -1.74974149        1 
