32
Lattice="0.0 0.0 0.0 0.0 0.0 0.0 0.0 0.0 0.0" Properties=species:S:1:pos:R:3:Z:I:1 pbc="F F F"
C      -0.62754320       0.65499663       0.53943076        6 
C       0.76079264      -0.04451525       0.63630936        6 
C      -1.81375449      -0.20797689       0.15654056        6 
C       0.84180692      -1.38404214      -0.08421390        6 
O      -2.93029997       0.55805955       0.12075472        8 
O      -1.83061888      -1.40913328       0.00607389        8 
O       1.11857327      -2.37400951       0.79661026        8 
O       0.75636833      -1.55542143      -1.27816775        8 
C       1.14736852      -3.69103961       0.22272739        6 
C      -4.14699422      -0.14646110      -0.18331630        6 
C      -0.32074941       1.86657314      -0.39872038        6 
C       0.32126005       2.97895993       0.45242725        6 
C       1.68659617       2.31208739       0.78654602        6 
C       1.64745309       1.02667217      -0.09717226        6 
O       0.78232796       1.41422074      -1.18155072        8 
H      -0.90432483       1.04221123       1.52711420        1 
H       1.06190558      -0.19059428       1.67505524        1 
H       1.92852191      -3.76418739      -0.53960558        1 
H      -4.34163862      -0.91630835       0.56881704        1 
H       0.45767406       3.87599842      -0.15817057        1 
H      -0.26817516       3.25029717       1.33395998        1 
H       2.52770618       2.94660149       0.49341646        1 
H       1.80275619       2.07712929       1.84942409        1 
H       1.35358398      -4.36966071       1.05161164        1 
H       0.18089733      -3.91947557      -0.23508921        1 
H      -4.07977313      -0.62151777      -1.16603147        1 
H      -4.93333952       0.60906967      -0.17426320        1 
H      -1.14861583       2.16387803      -1.04173744        1 
C       2.99175314       0.56406052      -0.61862294        6 
H       3.50002278       1.39343325      -1.12022116        1 
H       3.62100419       0.22250993       0.21101181        1 
H       2.86675500      -0.25279547      -1.33170068        1 
