32
Lattice="0.0 0.0 0.0 0.0 0.0 0.0 0.0 0.0 0.0" Properties=species:S:1:pos:R:3:Z:I:1 pbc="F F F"
C      -0.52319720       0.78995209       0.44520572        6 
C       0.72946582      -0.03948514       0.86470503        6 
C      -1.82524771       0.06492178       0.15747112        6 
C       0.68218547      -1.53861298       0.60074054        6 
O      -2.84372482       0.95698219       0.25478147        8 
O      -2.00620424      -1.10782922      -0.08129328        8 
O       0.55947946      -1.84086614      -0.70228669        8 
O       0.76608205      -2.36576383       1.48462824        8 
C       0.31665708      -3.22587288      -0.98688059        6 
C      -4.15211776       0.42028776      -0.00648221        6 
C       0.03883244       1.65100043      -0.74028664        6 
C       0.76820965       2.86410092      -0.13136906        6 
C       1.98110299       2.14424800       0.52689129        6 
C       1.82374821       0.68454336      -0.00275381        6 
O       1.12268380       0.87639670      -1.24625424        8 
H      -0.77755252       1.46926549       1.26432913        1 
H       0.92646399       0.05992314       1.93343718        1 
H      -0.64383193      -3.52171505      -0.55650670        1 
H      -4.38748162      -0.37622856       0.70500132        1 
H       1.09290265       3.53560476      -0.93109728        1 
H       0.15466611       3.43531869       0.57198109        1 
H       2.93196334       2.56634468       0.18958264        1 
H       1.96665607       2.18977690       1.62044244        1 
H       0.28703516      -3.29853823      -2.07468960        1 
H       1.11097575      -3.85619460      -0.57770940        1 
H      -4.20739034       0.01430360      -1.02074967        1 
H      -4.84094014       1.25763802       0.11038521        1 
H      -0.67792507       1.86419255      -1.53397490        1 
C       3.12163335      -0.06241901      -0.22267464        6 
H       3.78580833       0.52678353      -0.86246407        1 
H       3.62402640      -0.23714917       0.73469328        1 
H       2.93812252      -1.02446181      -0.70615107        1 
