32
Lattice="0.0 0.0 0.0 0.0 0.0 0.0 0.0 0.0 0.0" Properties=species:S:1:pos:R:3:Z:I:1 pbc="F F F"
C       0.38495949       0.91196157       0.73104699        6 
C       0.45872899      -0.65644015       0.61619160        6 
C      -0.87696017       1.67251855       0.37196166        6 
C      -0.76589560      -1.31998237      -0.00082839        6 
O      -1.61681592       1.08276664      -0.58125518        8 
O      -1.15018243       2.74794138       0.86400733        8 
O      -1.66242576      -1.59312676       0.98143945        8 
O      -0.93982589      -1.63289680      -1.15526555        8 
C      -2.89760636      -2.16666822       0.52688504        6 
C      -2.79346630       1.79546151      -0.99640002        6 
C       1.57059959       1.33377390      -0.21004932        6 
C       2.88915117       1.17795015       0.56879080        6 
C       2.96685003      -0.37127123       0.66056605        6 
C       1.76502759      -0.81731184      -0.23308789        6 
O       1.63826944       0.27807659      -1.16198540        8 
H       0.59695707       1.22414619       1.75572191        1 
H       0.57394163      -1.08404976       1.61523408        1 
H      -2.71904006      -3.12016056       0.02146804        1 
H      -2.52013144       2.75963388      -1.43365136        1 
H       3.71485261       1.58192064      -0.02379635        1 
H       2.88199738       1.68455427       1.53816704        1 
H       3.90345366      -0.75278485       0.24468143        1 
H       2.88159184      -0.74629678       1.68530073        1 
H      -3.50321953      -2.31291127       1.42217778        1 
H      -3.39767773      -1.48796370      -0.17071739        1 
H      -3.45735190       1.96754606      -0.14444582        1 
H      -3.26973575       1.15550809      -1.73950232        1 
H       1.42502900       2.28912928      -0.71636127        1 
C       1.99041928      -2.12349103      -0.96740816        6 
H       2.94301206      -2.07634038      -1.50448275        1 
H       2.03914188      -2.95449652      -0.25421348        1 
H       1.18689226      -2.31246767      -1.67783728        1 
