32
Lattice="0.0 0.0 0.0 0.0 0.0 0.0 0.0 0.0 0.0" Properties=species:S:1:pos:R:3:Z:I:1 pbc="F F F"
C       0.03617226       1.01998642       0.33275204        6 
C       0.49363842      -0.36380906       0.85456216        6 
C      -1.41338489       1.43031988       0.17838602        6 
C      -0.19271342      -1.59952882       0.28052659        6 
O      -2.29642498       0.57797304       0.72673770        8 
O      -1.73071883       2.46727199      -0.36874862        8 
O      -1.11590223      -1.33198465      -0.65647428        8 
O       0.05894680      -2.72551680       0.66136499        8 
C      -1.74342034      -2.47865435      -1.24918727        6 
C      -3.67463005       0.97051149       0.61809712        6 
C       0.99469292       1.27706956      -0.87346221        6 
C       2.21938878       2.01061210      -0.30715144        6 
C       2.74370320       0.90570803       0.65855810        6 
C       1.94291313      -0.35642738       0.19098993        6 
O       1.55581164      -0.01169517      -1.15917167        8 
H       0.33558043       1.73140106       1.11688906        1 
H       0.51120916      -0.45139495       1.94242723        1 
H      -2.25097785      -3.07525613      -0.48595273        1 
H      -3.96218649       1.05815994      -0.43350237        1 
H       2.93750218       2.21020204      -1.10719585        1 
H       1.97425739       2.95457789       0.18951500        1 
H       3.81739398       0.73744165       0.54209805        1 
H       2.55973631       1.13615506       1.71346521        1 
H      -2.45979606      -2.07969220      -1.96817477        1 
H      -1.00152376      -3.10494992      -1.75293565        1 
H      -3.84576368       1.93147837       1.11171047        1 
H      -4.24239674       0.17863200       1.10788671        1 
H       0.51884852       1.69673500      -1.75866180        1 
C       2.75742942      -1.63303498       0.20931413        6 
H       3.69431836      -1.46512080      -0.33179440        1 
H       2.99392106      -1.91378337       1.24051632        1 
H       2.22661504      -2.46539294      -0.25182723        1 
