32
Lattice="0.0 0.0 0.0 0.0 0.0 0.0 0.0 0.0 0.0" Properties=species:S:1:pos:R:3:Z:I:1 pbc="F F F"
C       0.19137466       1.21197103       0.48608737        6 
C       0.58059542      -0.26397943       0.87278297        6 
C      -1.17887447       1.38254920      -0.15110075        6 
C      -0.50924498      -1.29934876       0.67657664        6 
O      -2.14542409       0.95318410       0.69268135        8 
O      -1.40471437       1.87795175      -1.23112518        8 
O      -0.89145816      -1.39623129      -0.61712405        8 
O      -0.95746175      -1.99750495       1.55918832        8 
C      -1.93268968      -2.35049420      -0.87768067        6 
C      -3.48489397       1.01667646       0.17574713        6 
C       1.32645222       1.56978875      -0.50196739        6 
C       2.63936856       1.79523131       0.27584613        6 
C       3.01688651       0.33068829       0.64127562        6 
C       1.85903561      -0.46975031      -0.02009406        6 
O       1.56121945       0.32724748      -1.17619283        8 
H       0.19924301       1.84274495       1.38115005        1 
H       0.83171409      -0.32832142       1.93289669        1 
H      -2.82539848      -2.11012381      -0.29325837        1 
H      -3.56299174       0.43321158      -0.74612500        1 
H       3.39021955       2.24773636      -0.37761065        1 
H       2.51474409       2.44617330       1.14712376        1 
H       3.96688330       0.03946564       0.18403430        1 
H       3.09351309       0.15270235       1.71819624        1 
H      -2.13694932      -2.27502806      -1.94602418        1 
H      -1.60237745      -3.35995529      -0.61636929        1 
H      -3.76734529       2.05171449      -0.03634777        1 
H      -4.11980954       0.59443698       0.95522711        1 
H       1.05238666       2.33423720      -1.22727956        1 
C       2.19971931      -1.89125671      -0.41552167        6 
H       3.10283089      -1.89647639      -1.03346298        1 
H       2.38367147      -2.50272939       0.47456513        1 
H       1.38522570      -2.33809221      -0.98996703        1 
