32
Lattice="0.0 0.0 0.0 0.0 0.0 0.0 0.0 0.0 0.0" Properties=species:S:1:pos:R:3:Z:I:1 pbc="F F F"
C      -0.56825293       0.99857620      -0.84430660        6 
C      -0.35992189      -0.53888196      -0.73447131        6 
C       0.47214053       1.88464743      -0.17467447        6 
C       1.10461503      -0.94314710      -0.78979730        6 
O       1.18948564       1.24664582       0.76976414        8 
O       0.59101125       3.06415401      -0.42799422        8 
O       1.37657963      -2.08129765      -0.12338514        8 
O       1.92117096      -0.36029493      -1.47077947        8 
C       2.73507275      -2.54179635      -0.23168178        6 
C       2.17501946       2.04801227       1.43839782        6 
C      -1.87687756       1.13471559      -0.01754091        6 
C      -3.03711568       0.36303422      -0.69716394        6 
C      -2.74036703      -1.09351145      -0.23380050        6 
C      -1.35528061      -0.91846873       0.43997497        6 
O      -1.56056959       0.33608347       1.12576467        8 
H      -0.67498969       1.35142827      -1.87119164        1 
H      -0.75089787      -0.99161895      -1.65547690        1 
H       3.42531637      -1.78243882       0.14543010        1 
H       1.70543958       2.90815327       1.92332526        1 
H      -4.00506263       0.71709437      -0.33248682        1 
H      -3.02603968       0.48005435      -1.78556992        1 
H      -3.46400313      -1.42126953       0.51854070        1 
H      -2.74015231      -1.82358926      -1.04956359        1 
H       2.78541613      -3.44627252       0.37541893        1 
H       2.98447267      -2.75988504      -1.27394179        1 
H       2.92178367       2.40395524       0.72291997        1 
H       2.63295834       1.39113083       2.17868720        1 
H      -2.10447951       2.15702490       0.28746295        1 
C      -0.97296230      -1.97790441       1.44922902        6 
H      -1.76972018      -2.05460189       2.19635738        1 
H      -0.83850833      -2.94969401       0.96796050        1 
H      -0.04059562      -1.71150485       1.94972210        1 
