32
Lattice="0.0 0.0 0.0 0.0 0.0 0.0 0.0 0.0 0.0" Properties=species:S:1:pos:R:3:Z:I:1 pbc="F F F"
C       0.30596283       0.98146330       0.67878865        6 
C       0.48026237      -0.58463559       0.60934281        6 
C      -0.88960099       1.66328118       0.01670446        6 
C      -0.72215053      -1.36045108       0.10065506        6 
O      -1.99711424       0.90258114      -0.02928662        8 
O      -0.85634444       2.80790512      -0.38249837        8 
O      -1.53504516      -1.66467015       1.14023705        8 
O      -0.95868970      -1.68101500      -1.04261025        8 
C      -2.76829191      -2.29925463       0.77616980        6 
C      -3.14042342       1.51034660      -0.65686788        6 
C       1.61245995       1.44328136      -0.01647198        6 
C       2.82794447       1.16193045       0.89221458        6 
C       2.98068356      -0.37367037       0.70962161        6 
C       1.79734772      -0.70045815      -0.24489832        6 
O       1.74773128       0.48100620      -1.06678014        8 
H       0.27027494       1.30738523       1.72494814        1 
H       0.65902494      -0.95170187       1.62335334        1 
H      -2.58280743      -3.26070279       0.28815442        1 
H      -2.90973600       1.76963838      -1.69315555        1 
H       3.70668616       1.69828442       0.52415767        1 
H       2.65761645       1.46661751       1.92997279        1 
H       3.92293314      -0.62162586       0.21224541        1 
H       2.93749863      -0.93699372       1.64687795        1 
H      -3.31444664      -2.44209010       1.70953650        1 
H      -3.33378964      -1.66064022       0.09136090        1 
H      -3.43648771       2.41415897      -0.11793758        1 
H      -3.92866428       0.75833239      -0.61548675        1 
H       1.54563866       2.44687625      -0.43234968        1 
C       1.99705214      -1.93743723      -1.09580291        6 
H       2.96110656      -1.86917135      -1.60975745        1 
H       2.00451351      -2.83448046      -0.46614858        1 
H       1.20053620      -2.03504219      -1.83246210        1 
