32
Lattice="0.0 0.0 0.0 0.0 0.0 0.0 0.0 0.0 0.0" Properties=species:S:1:pos:R:3:Z:I:1 pbc="F F F"
C       0.15051637       0.97371932       0.43737642        6 
C       0.58476110      -0.52853849       0.67608096        6 
C      -1.21933501       1.16896378      -0.17510984        6 
C      -0.37727668      -1.54069852       0.05666102        6 
O      -2.13526697       1.48348351       0.76621502        8 
O      -1.47718575       1.05725123      -1.35461202        8 
O      -1.61706860      -1.35977040       0.57302923        8 
O      -0.13123904      -2.39632492      -0.76092964        8 
C      -2.65036388      -2.16817089      -0.01565736        6 
C      -3.48187079       1.60517904       0.28392541        6 
C       1.30002475       1.46133880      -0.49845797        6 
C       2.49204298       1.85748551       0.38675722        6 
C       2.89443564       0.45766486       0.92802226        6 
C       2.01646939      -0.50332712       0.05704778        6 
O       1.77415960       0.27110313      -1.13246917        8 
H       0.16287600       1.50778216       1.39012918        1 
H       0.59770747      -0.73857301       1.75116776        1 
H      -2.40640817      -3.23062795       0.06464761        1 
H      -3.81576476       0.65928025      -0.15264485        1 
H       3.28479093       2.28569388      -0.23286068        1 
H       2.23629984       2.57885704       1.16942312        1 
H       3.95502279       0.24860541       0.76461584        1 
H       2.69564252       0.33896388       1.99831324        1 
H      -3.55624305      -1.93646512       0.54591579        1 
H      -2.77127988      -1.90505313      -1.07042229        1 
H      -3.55271772       2.38761566      -0.47703513        1 
H      -4.08579983       1.85965029       1.15570627        1 
H       0.98702221       2.17813122      -1.25733699        1 
C       2.69868635      -1.81582334      -0.27447115        6 
H       3.68624433      -1.60729974      -0.69852716        1 
H       2.83582964      -2.40991780       0.63644280        1 
H       2.11402092      -2.39577451      -0.98543451        1 
