32
Lattice="0.0 0.0 0.0 0.0 0.0 0.0 0.0 0.0 0.0" Properties=species:S:1:pos:R:3:Z:I:1 pbc="F F F"
C       0.16754931       1.03146746       0.85550697        6 
C       0.66756135      -0.45108357       0.74782239        6 
C      -1.26529942       1.35478757       0.45809458        6 
C      -0.28716843      -1.62064624       0.58532394        6 
O      -1.48042340       1.25623611      -0.86636229        8 
O      -2.11560271       1.69777072       1.25313500        8 
O      -1.50114361      -1.31408066       0.09748136        8 
O       0.04822401      -2.75529994       0.86098185        8 
C      -2.40257009      -2.42423524      -0.05644647        6 
C      -2.83464599       1.47842663      -1.27845084        6 
C       1.18562565       1.71620536      -0.10539054        6 
C       2.60180376       1.70191546       0.52035493        6 
C       3.03556404       0.23281184       0.24137252        6 
C       1.75054656      -0.34520263      -0.40602751        6 
O       1.28830594       0.77296614      -1.17456139        8 
H       0.26199673       1.38786258       1.88294527        1 
H       1.18744000      -0.70824309       1.67422083        1 
H      -2.58300432      -2.90739576       0.90760665        1 
H      -3.16827088       2.48412490      -1.00633585        1 
H       3.25194758       2.41525917       0.00676376        1 
H       2.59400207       1.96001394       1.58399870        1 
H       3.85296916       0.19343155      -0.48480585        1 
H       3.34727074      -0.31512844       1.13506362        1 
H      -3.32433433      -1.99692733      -0.45191278        1 
H      -1.98616482      -3.15918495      -0.75041413        1 
H      -3.49747734       0.74783736      -0.80461963        1 
H      -2.83546389       1.35262308      -2.36184954        1 
H       0.85491856       2.67840946      -0.49747992        1 
C       1.93110482      -1.55839456      -1.28960598        6 
H       2.70618431      -1.35797793      -2.03536550        1 
H       2.21703948      -2.42954343      -0.69464320        1 
H       0.99866495      -1.79002866      -1.81348068        1 
