32
Lattice="0.0 0.0 0.0 0.0 0.0 0.0 0.0 0.0 0.0" Properties=species:S:1:pos:R:3:Z:I:1 pbc="F F F"
C      -0.25918748       0.93907003      -0.94096903        6 
C      -0.53639769      -0.56579744      -0.67882574        6 
C       0.94974122       1.64508544      -0.34327230        6 
C       0.54681023      -1.62794689      -0.61444379        6 
O       1.35589689       1.14628066       0.83312662        8 
O       1.45259603       2.61730756      -0.87126259        8 
O       1.78896299      -1.19225983      -0.35189054        8 
O       0.27866401      -2.80296693      -0.77728106        8 
C       2.79722086      -2.21646870      -0.29911451        6 
C       2.47090522       1.82087611       1.43138168        6 
C      -1.50556125       1.51650080      -0.18432495        6 
C      -2.83440961       1.01083310      -0.81170967        6 
C      -2.96935742      -0.39360008      -0.14793420        6 
C      -1.58136306      -0.52400658       0.52012686        6 
O      -1.42673558       0.80372983       1.05199267        8 
H      -0.26400560       1.18490469      -2.00433182        1 
H      -1.09679640      -0.91756592      -1.55067105        1 
H       2.85369194      -2.75151328      -1.25115614        1 
H       2.22512817       2.86656248       1.63767364        1 
H      -3.66377348       1.66955131      -0.54157753        1 
H      -2.78407000       0.96731094      -1.90440399        1 
H      -3.74241441      -0.39187549       0.62656781        1 
H      -3.18842235      -1.19876139      -0.85527395        1 
H       3.73126889      -1.69286412      -0.09335289        1 
H       2.57070832      -2.93266764       0.49542094        1 
H       3.33979500       1.78740317       0.76740936        1 
H       2.67316907       1.28389098       2.35871386        1 
H      -1.45398408       2.59105854      -0.00252078        1 
C      -1.42040937      -1.55589652       1.61001941        6 
H      -2.17223277      -1.39458176       2.38876092        1 
H      -1.53238744      -2.56427791       1.20281923        1 
H      -0.42678924      -1.46997868       2.06162391        1 
