32
Lattice="0.0 0.0 0.0 0.0 0.0 0.0 0.0 0.0 0.0" Properties=species:S:1:pos:R:3:Z:I:1 pbc="F F F"
C      -0.01514176       0.90199586       0.50521040        6 
C       0.64097096      -0.51768540       0.66070219        6 
C      -1.38933166       0.93471689      -0.12748768        6 
C      -0.19947049      -1.62617598       0.03639398        6 
O      -2.17841407       1.83483572       0.50387690        8 
O      -1.75041069       0.29803946      -1.09320526        8 
O      -1.21537174      -1.92454338       0.88602323        8 
O      -0.01484649      -2.20731324      -1.00550645        8 
C      -2.18128273      -2.85345444       0.36569139        6 
C      -3.49541343       1.98402484      -0.05483110        6 
C       1.04600319       1.61693746      -0.40326088        6 
C       2.20151437       2.08939948       0.49694603        6 
C       2.82808257       0.71808695       0.87282002        6 
C       2.02231166      -0.27479351      -0.02552097        6 
O       1.63630860       0.55386791      -1.14264158        8 
H      -0.08771578       1.40256569       1.47217955        1 
H       0.74586469      -0.76108440       1.72152843        1 
H      -1.70952235      -3.81211045       0.13247925        1 
H      -4.03404016       1.03254400      -0.02211522        1 
H       2.89808680       2.69747308      -0.08716703        1 
H       1.86989911       2.67847569       1.35737541        1 
H       3.88991238       0.67653206       0.61491148        1 
H       2.73651327       0.47945568       1.93732482        1 
H      -2.92708523      -2.97404247       1.15274854        1 
H      -2.63592858      -2.44666687      -0.54191440        1 
H      -3.43760055       2.31974997      -1.09415272        1 
H      -3.99403572       2.73048506       0.56433762        1 
H       0.63168600       2.36050950      -1.08570740        1 
C       2.82060436      -1.47645403      -0.48877095        6 
H       3.75536207      -1.13467563      -0.94436905        1 
H       3.06918653      -2.11486931       0.36682381        1 
H       2.25872531      -2.06124620      -1.21534165        1 
