32
Lattice="0.0 0.0 0.0 0.0 0.0 0.0 0.0 0.0 0.0" Properties=species:S:1:pos:R:3:Z:I:1 pbc="F F F"
C      -0.80915287      -0.46275702      -0.40782688        6 
C       0.60778891       0.02696482      -0.78832225        6 
C      -1.93512934       0.55030012      -0.36066089        6 
C       0.97443110       1.33235510      -0.07730792        6 
O      -3.03209309      -0.02157755       0.19937350        8 
O      -1.96080716       1.61574588      -0.93044976        8 
O       2.27683715       1.64484026      -0.27510594        8 
O       0.26607207       1.95289558       0.68084710        8 
C       2.73474949       2.80868950       0.43381759        6 
C      -4.22403278       0.78026200       0.15382705        6 
C      -0.54341767      -1.45091006       0.76976644        6 
C      -0.33774216      -2.83319557       0.13046826        6 
C       0.93637691      -2.52575254      -0.71030077        6 
C       1.41851509      -1.15986327      -0.10345564        6 
O       0.79039389      -1.14384226       1.19586918        8 
H      -1.15989137      -1.07195584      -1.25383121        1 
H       0.78170560       0.10546614      -1.86377276        1 
H       2.64423511       2.65622209       1.51310617        1 
H      -4.51562000       0.97356473      -0.88290667        1 
H      -0.13217023      -3.57828036       0.90406488        1 
H      -1.19133819      -3.17171314      -0.46553450        1 
H       1.70401735      -3.29279904      -0.58046585        1 
H       0.73134240      -2.44504806      -1.78300404        1 
H       3.77960981       2.93312159       0.14674401        1 
H       2.14793481       3.68700181       0.15149199        1 
H      -4.06411086       1.73673572       0.65882171        1 
H      -4.99022199       0.19701031       0.66631872        1 
H      -1.23717708      -1.38196177       1.60599401        1 
C       2.92461698      -1.07652941       0.04371451        6 
H       3.28915220      -2.00502782       0.49466161        1 
H       3.40062334      -0.95056068      -0.93355406        1 
H       3.22106791      -0.24312669       0.67841620        1 
