32
Lattice="0.0 0.0 0.0 0.0 0.0 0.0 0.0 0.0 0.0" Properties=species:S:1:pos:R:3:Z:I:1 pbc="F F F"
C      -0.71928941       0.71622249       0.69804411        6 
C       0.70547219       0.08837211       0.75077826        6 
C      -1.69687775      -0.09710107      -0.12934996        6 
C       0.64600578      -1.43200778       0.69176280        6 
O      -2.96804359       0.22095076       0.20205673        8 
O      -1.40802137      -0.86887827      -1.01685236        8 
O       1.61613355      -2.00575796      -0.03899133        8 
O      -0.15662202      -2.06197865       1.34856119        8 
C       1.56980453      -3.44331047      -0.08639543        6 
C      -3.98150573      -0.44773383      -0.56880880        6 
C      -0.40910907       2.01826389      -0.09187123        6 
C       0.51017152       2.94493154       0.74150061        6 
C       1.89425164       2.26995801       0.51270443        6 
C       1.49172157       0.99540960      -0.27891898        6 
O       0.44649258       1.52769762      -1.12262157        8 
H      -1.14779123       0.90933618       1.68290579        1 
H       1.11579184       0.26898596       1.75134388        1 
H       0.62340395      -3.77298826      -0.52297272        1 
H      -3.90424293      -1.53089416      -0.43907988        1 
H       0.48789829       3.96418864       0.34637480        1 
H       0.21334318       2.98630371       1.79444793        1 
H       2.53558042       2.89489930      -0.11586834        1 
H       2.43555005       2.05085700       1.43831474        1 
H       2.41007954      -3.74056620      -0.71483152        1 
H       1.66704614      -3.86507507       0.91767540        1 
H      -3.87536674      -0.21037592      -1.63123760        1 
H      -4.93371225      -0.08042938      -0.18428184        1 
H      -1.28790620       2.49594819      -0.52843100        1 
C       2.57828229       0.39812736      -1.14569176        6 
H       3.00128551       1.18603894      -1.77760625        1 
H       3.37453598      -0.03207726      -0.53227676        1 
H       2.17099503      -0.38943352      -1.77969933        1 
