32
Lattice="0.0 0.0 0.0 0.0 0.0 0.0 0.0 0.0 0.0" Properties=species:S:1:pos:R:3:Z:I:1 pbc="F F F"
C      -0.73412628       0.77459547       0.64566221        6 
C       0.62370768       0.01598389       0.64724711        6 
C      -1.82031139       0.13868025      -0.21242852        6 
C       0.53268454      -1.47847639       0.39560911        6 
O      -2.96576471       0.01290866       0.49983110        8 
O      -1.72920798      -0.13149628      -1.38685388        8 
O       1.76151713      -2.04297979       0.44988131        8 
O      -0.48389129      -2.12762227       0.28357861        8 
C       1.78547306      -3.47177928       0.28552549        6 
C      -4.05236594      -0.59215111      -0.22004907        6 
C      -0.28067673       2.09726781      -0.03893739        6 
C       0.71185066       2.86218669       0.87455792        6 
C       2.03362067       2.08611767       0.59650056        6 
C       1.51827709       0.92598386      -0.29391251        6 
O       0.54643452       1.61446290      -1.09664906        8 
H      -1.12036477       0.92766293       1.65484252        1 
H       1.05156533       0.06423570       1.65574874        1 
H       1.36019747      -3.75281307      -0.68182500        1 
H      -3.77471101      -1.60004968      -0.54144672        1 
H       0.78796943       3.90880996       0.56780344        1 
H       0.40968492       2.84239844       1.92661359        1 
H       2.73505106       2.69603756       0.01928824        1 
H       2.54363919       1.74437363       1.50255388        1 
H       2.83704900      -3.75502636       0.34128903        1 
H       1.21095910      -3.95827299       1.07886803        1 
H      -4.31135847       0.00153630      -1.10159580        1 
H      -4.88775565      -0.62641460       0.48069400        1 
H      -1.09632079       2.69324201      -0.45069826        1 
C       2.53663432       0.25557691      -1.18784456        6 
H       3.01693114       1.01438759      -1.81363836        1 
H       3.29749207      -0.25853221      -0.59671709        1 
H       2.04906797      -0.47598910      -1.83799135        1 
