32
Lattice="0.0 0.0 0.0 0.0 0.0 0.0 0.0 0.0 0.0" Properties=species:S:1:pos:R:3:Z:I:1 pbc="F F F"
C      -0.53942683       0.77931134       0.37499139        6 
C       0.69339875      -0.04092227       0.86017787        6 
C      -1.85726703       0.06868236       0.11630650        6 
C       0.72655469      -1.53573445       0.57533884        6 
O      -2.86919322       0.94145044       0.36472114        8 
O      -2.05651933      -1.07625684      -0.22056010        8 
O       0.50014190      -1.83767181      -0.71063233        8 
O       0.95537798      -2.36091104       1.43678530        8 
C       0.35209654      -3.23480928      -0.99846205        6 
C      -4.19085083       0.42165211       0.14281169        6 
C       0.06049410       1.59037859      -0.83080198        6 
C       0.73359514       2.84483297      -0.24107981        6 
C       1.90612900       2.17458228       0.53399608        6 
C       1.82055617       0.69497649       0.04245039        6 
O       1.18850997       0.82508574      -1.24501839        8 
H      -0.78311983       1.49790544       1.16233236        1 
H       0.84102428       0.05631493       1.93679157        1 
H      -0.52526110      -3.62651384      -0.47652618        1 
H      -4.38006851      -0.43539669       0.79549448        1 
H       1.10707688       3.47535943      -1.05266889        1 
H       0.06946801       3.44453430       0.38857723        1 
H       2.87177906       2.60847994       0.26014220        1 
H       1.80232341       2.25185279       1.62087318        1 
H       0.21073055      -3.29539458      -2.07798000        1 
H       1.23925325      -3.79533674      -0.69092841        1 
H      -4.31280078       0.10510907      -0.89718019        1 
H      -4.87131264       1.24112013       0.37723984        1 
H      -0.61782785       1.74897051      -1.66974044        1 
C       3.14448661      -0.02787839      -0.08027809        6 
H       3.83544712       0.56151389      -0.69070446        1 
H       3.58915606      -0.17763681       0.90882316        1 
H       3.01030803      -1.00257730      -0.55631630        1 
