32
Lattice="0.0 0.0 0.0 0.0 0.0 0.0 0.0 0.0 0.0" Properties=species:S:1:pos:R:3:Z:I:1 pbc="F F F"
C       0.14522798       1.02899129       0.84675183        6 
C       0.69624517      -0.45404721       0.80295625        6 
C      -1.30789983       1.12402266       0.38928599        6 
C      -0.42075178      -1.48358887       0.80300166        6 
O      -1.45479933       1.73910454      -0.79880766        8 
O      -2.23993966       0.68824510       1.03229915        8 
O      -0.82040553      -1.84461074      -0.43611610        8 
O      -0.88344191      -1.95354312       1.81717678        8 
C      -1.96447289      -2.71708491      -0.46905776        6 
C      -2.80225115       1.79634082      -1.29464347        6 
C       1.14762794       1.70916894      -0.11277820        6 
C       2.55689873       1.74072345       0.52432664        6 
C       3.02436151       0.27686607       0.28651885        6 
C       1.75608572      -0.35578517      -0.35220780        6 
O       1.27097511       0.73407654      -1.15718167        8 
H       0.17148429       1.41529347       1.86873007        1 
H       1.20393226      -0.65045379       1.75034007        1 
H      -2.81135564      -2.23718757       0.02893627        1 
H      -3.45001700       2.33161872      -0.59480871        1 
H       3.19606417       2.45677199       0.00091023        1 
H       2.53266653       2.02405376       1.58171497        1 
H       3.84568587       0.23773297      -0.43504754        1 
H       3.34728038      -0.23765796       1.19632313        1 
H      -2.17541705      -2.88200427      -1.52631190        1 
H      -1.74267312      -3.66248179       0.03363019        1 
H      -3.19479040       0.78544764      -1.43785292        1 
H      -2.74028479       2.32326898      -2.24713480        1 
H       0.79932655       2.65108916      -0.53309533        1 
C       2.01739793      -1.57918053      -1.20540213        6 
H       2.80615373      -1.35412468      -1.93012707        1 
H       2.34953251      -2.41586463      -0.58065414        1 
H       1.11657132      -1.87930546      -1.73964938        1 
