32
Lattice="0.0 0.0 0.0 0.0 0.0 0.0 0.0 0.0 0.0" Properties=species:S:1:pos:R:3:Z:I:1 pbc="F F F"
C      -0.51049741       0.80582401       0.59899058        6 
C       0.78477771      -0.04340329       0.84901897        6 
C      -1.75542781       0.08185173       0.12187429        6 
C       0.56095901      -1.54460197       0.69788408        6 
O      -2.80543188       0.93676376       0.17991219        8 
O      -1.85396126      -1.05325949      -0.28664094        8 
O       0.79186190      -2.01078031      -0.54080779        8 
O       0.22043640      -2.23970728       1.63114470        8 
C       0.39077943      -3.37247455      -0.75814602        6 
C      -4.05278349       0.40594583      -0.30168098        6 
C      -0.00962535       1.79570103      -0.50846373        6 
C       0.84498600       2.89211264       0.15165856        6 
C       2.11045486       2.07016606       0.52199932        6 
C       1.79511008       0.67577691      -0.10782695        6 
O       0.95144757       1.02499820      -1.22586565        8 
H      -0.79860390       1.35986738       1.49572261        1 
H       1.08933898       0.07187381       1.89193492        1 
H      -0.68480287      -3.46282753      -0.58756247        1 
H      -4.34749918      -0.46924386       0.28394494        1 
H       1.07769767       3.67041862      -0.58039659        1 
H       0.35400719       3.36297777       1.00879746        1 
H       3.00997310       2.49253380       0.06511590        1 
H       2.28506059       2.00605735       1.60030717        1 
H       0.63676203      -3.58632093      -1.79906306        1 
H       0.92703926      -4.04862907      -0.08640800        1 
H      -3.96572374       0.11501530      -1.35249933        1 
H      -4.77883356       1.21102564      -0.18404697        1 
H      -0.79309779       2.14478927      -1.18193676        1 
C       3.02500887      -0.08248763      -0.56396087        6 
H       3.63255054       0.56114963      -1.20815005        1 
H       3.63060441      -0.36979410       0.30307140        1 
H       2.75097895      -0.98045932      -1.11559890        1 
