32
Lattice="0.0 0.0 0.0 0.0 0.0 0.0 0.0 0.0 0.0" Properties=species:S:1:pos:R:3:Z:I:1 pbc="F F F"
C       0.19773744       1.07620472       0.66346056        6 
C       0.48204325      -0.47210734       0.63249785        6 
C      -0.99784368       1.50187505      -0.17683045        6 
C      -0.65845912      -1.29163243       0.06694049        6 
O      -2.12443224       1.46868765       0.57965278        8 
O      -0.97138439       1.88527571      -1.32083884        8 
O      -1.13233493      -2.15636192       0.99413488        8 
O      -1.11293508      -1.20705263      -1.05401390        8 
C      -2.23373270      -2.97154138       0.55869761        6 
C      -3.33867855       1.73989027      -0.14205711        6 
C       1.50640679       1.59923722       0.01882085        6 
C       2.69696407       1.37627489       0.98153964        6 
C       2.96219929      -0.14412264       0.77845224        6 
C       1.81925467      -0.52528397      -0.20058006        6 
O       1.73681432       0.64459152      -1.02076545        8 
H       0.04173977       1.42055943       1.68832867        1 
H       0.65780880      -0.83218934       1.64808601        1 
H      -1.94038594      -3.59206803      -0.29299200        1 
H      -3.47468023       0.99857050      -0.93494582        1 
H       3.55586118       1.97725544       0.67147765        1 
H       2.45673855       1.64088942       2.01635748        1 
H       3.92525338      -0.31674489       0.28875052        1 
H       2.94435512      -0.72386442       1.70633036        1 
H      -2.49622727      -3.59263958       1.41573206        1 
H      -3.07918152      -2.34429158       0.26190998        1 
H      -3.30744906       2.73737054      -0.58884183        1 
H      -4.14106982       1.67171643       0.59386398        1 
H       1.41847797       2.59435813      -0.41571350        1 
C       2.04580493      -1.75927323      -1.04628316        6 
H       2.99501470      -1.67044661      -1.58340526        1 
H       2.08578915      -2.65392650      -0.41452004        1 
H       1.23873613      -1.87329387      -1.77353100        1 
