32
Lattice="0.0 0.0 0.0 0.0 0.0 0.0 0.0 0.0 0.0" Properties=species:S:1:pos:R:3:Z:I:1 pbc="F F F"
C      -0.05007674       0.77223507      -0.83977896        6 
C      -0.52189468      -0.71045708      -0.55584794        6 
C       1.24871179       1.22100226      -0.15397356        6 
C       0.53838186      -1.73303775      -0.17694204        6 
O       1.03364331       2.13033861       0.82064997        8 
O       2.36144505       0.86915983      -0.48068369        8 
O       1.56250475      -1.65596702      -1.04238424        8 
O       0.49531828      -2.52212540       0.74323019        8 
C       2.69773533      -2.48373972      -0.74968325        6 
C       2.21684871       2.61559380       1.47377784        6 
C      -1.29559993       1.51878545      -0.31121726        6 
C      -2.54011164       1.18743730      -1.17623792        6 
C      -2.96110147      -0.18778510      -0.58654066        6 
C      -1.77663312      -0.48308368       0.36985166        6 
O      -1.54112899       0.82865515       0.92002421        8 
H       0.12592392       0.90852306      -1.91025338        1 
H      -0.87892687      -1.09362633      -1.52072199        1 
H       2.42895958      -3.54298011      -0.80189562        1 
H       2.87524775       3.11459041       0.75664524        1 
H      -3.31741038       1.94321861      -1.03681244        1 
H      -2.30289861       1.14455984      -2.24458443        1 
H      -3.87936171      -0.10119646       0.00180951        1 
H      -3.11260889      -0.96575847      -1.34132432        1 
H       3.44079655      -2.23293889      -1.50641762        1 
H       3.07923482      -2.25890395       0.24967131        1 
H       2.76336719       1.79006347       1.93813377        1 
H       1.86487059       3.31761127       2.23028333        1 
H      -1.13596095       2.57686580      -0.11360771        1 
C      -2.07559651      -1.46431723       1.48284659        6 
H      -2.97812139      -1.13405696       2.00766209        1 
H      -2.24407481      -2.46679621       1.08028110        1 
H      -1.24726290      -1.52434803       2.18875197        1 
