32
Lattice="0.0 0.0 0.0 0.0 0.0 0.0 0.0 0.0 0.0" Properties=species:S:1:pos:R:3:Z:I:1 pbc="F F F"
C      -0.28883974       1.00013814       0.47903401        6 
C       0.70386736      -0.15973355       0.86810225        6 
C      -1.61997697       0.56438707      -0.09776043        6 
C       0.02572805      -1.51780359       0.72937555        6 
O      -2.61863393       1.33661935       0.38478480        8 
O      -1.79141194      -0.30461323      -0.92532495        8 
O       0.34137762      -2.19856828      -0.38052308        8 
O      -0.76395641      -1.91242956       1.56326264        8 
C      -0.46283905      -3.36269825      -0.63312308        6 
C      -3.92642578       1.03236937      -0.13164440        6 
C       0.55256615       1.74252899      -0.61372019        6 
C       1.61754066       2.60262180       0.09273589        6 
C       2.57963964       1.49114784       0.59599078        6 
C       1.94352442       0.20036661      -0.01240460        6 
O       1.32068452       0.70238074      -1.21223313        8 
H      -0.48735979       1.65137481       1.33131502        1 
H       0.93966060      -0.08223848       1.93260654        1 
H      -1.50426598      -3.05942377      -0.76569483        1 
H      -4.18855129      -0.00677294       0.08572659        1 
H       2.10933083       3.25552208      -0.63361918        1 
H       1.20477228       3.22732895       0.89058102        1 
H       3.58897207       1.62794917       0.19789678        1 
H       2.65556757       1.44392252       1.68675217        1 
H      -0.06746030      -3.79429023      -1.55321074        1 
H      -0.38852161      -4.07448127       0.19342556        1 
H      -3.95806080       1.18640328      -1.21421908        1 
H      -4.60797696       1.71650504       0.37484159        1 
H      -0.04195749       2.24859218      -1.37601076        1 
C       2.95280606      -0.88427193      -0.32980208        6 
H       3.76737640      -0.46094052      -0.92601662        1 
H       3.37833304      -1.28357350       0.59782213        1 
H       2.49318928      -1.70025786      -0.88503474        1 
