32
Lattice="0.0 0.0 0.0 0.0 0.0 0.0 0.0 0.0 0.0" Properties=species:S:1:pos:R:3:Z:I:1 pbc="F F F"
C       0.08488339       1.07383093       0.34156646        6 
C       0.50393468      -0.34245229       0.82987631        6 
C      -1.37291604       1.36765942       0.06045737        6 
C      -0.27310833      -1.52919925       0.27274020        6 
O      -2.17250946       0.79264265       0.98485446        8 
O      -1.77644201       2.07455125      -0.83681227        8 
O      -1.22669647      -1.19593225      -0.61587036        8 
O      -0.06237697      -2.67391525       0.61705217        8 
C      -1.93295109      -2.29727766      -1.20924268        6 
C      -3.58027552       0.96989914       0.76799691        6 
C       1.08579324       1.35100556      -0.81404518        6 
C       2.33656549       1.98479733      -0.18570275        6 
C       2.80177799       0.79776311       0.70606797        6 
C       1.94011961      -0.38808561       0.15785743        6 
O       1.58203942       0.05118960      -1.16976369        8 
H       0.30839652       1.76396281       1.16765310        1 
H       0.53580459      -0.44404899       1.91622504        1 
H      -2.45139756      -2.87753383      -0.44070938        1 
H      -3.87498906       0.50770135      -0.17914941        1 
H       3.07102863       2.20600796      -0.96499174        1 
H       2.13220375       2.90414308       0.37233812        1 
H       3.86660800       0.58429107       0.58192422        1 
H       2.62209002       0.96994747       1.77272788        1 
H      -2.64399716      -1.84668321      -1.90210669        1 
H      -1.23824941      -2.95313574      -1.74112472        1 
H      -3.84120528       2.03144625       0.74005599        1 
H      -4.07249106       0.47352743       1.60521835        1 
H       0.64840620       1.84440114      -1.68068096        1 
C       2.67620228      -1.71073883       0.10703890        6 
H       3.63284462      -1.56709046      -0.40559706        1 
H       2.87080283      -2.07532835       1.12033282        1 
H       2.10466829      -2.47493595      -0.41989410        1 
