32
Lattice="0.0 0.0 0.0 0.0 0.0 0.0 0.0 0.0 0.0" Properties=species:S:1:pos:R:3:Z:I:1 pbc="F F F"
C      -0.21653666       0.93344861       0.91487961        6 
C       0.68135412      -0.34013510       0.72383203        6 
C      -1.57353338       0.81312310       0.20734789        6 
C      -0.09064458      -1.65336203       0.77204975        6 
O      -1.85801036       1.88472103      -0.55976411        8 
O      -2.31769464      -0.13917461       0.29908002        8 
O       0.01988160      -2.40966303      -0.33716543        8 
O      -0.64847525      -2.02336893       1.78050494        8 
C      -0.70912516      -3.64982833      -0.29247748        6 
C      -3.10322762       1.81056194      -1.27371393        6 
C       0.68491799       1.96439534       0.19822336        6 
C       2.06626385       2.08531682       0.89078392        6 
C       2.81373472       0.85556021       0.30158208        6 
C       1.65649596       0.12666600      -0.42823708        6 
O       0.96877705       1.25192112      -1.01657865        8 
H      -0.40216032       1.13658508       1.97374121        1 
H       1.27415790      -0.42499095       1.64108253        1 
H      -1.77206324      -3.45368611      -0.12982590        1 
H      -3.94231576       1.71676313      -0.57849317        1 
H       2.55352765       3.02510480       0.61891149        1 
H       1.98238051       2.05500777       1.98221412        1 
H       3.56169040       1.16544417      -0.43449276        1 
H       3.31029647       0.23577943       1.05452447        1 
H      -0.54383352      -4.12088526      -1.26219992        1 
H      -0.33635914      -4.28532532       0.51571718        1 
H      -3.10385671       0.94878192      -1.94685385        1 
H      -3.17058089       2.74068894      -1.83880019        1 
H       0.19615450       2.90731952      -0.03555602        1 
C       2.07603854      -0.83749622      -1.51635410        6 
H       2.77173551      -0.32881129      -2.19175826        1 
H       2.57297831      -1.71466140      -1.09192711        1 
H       1.21100099      -1.17950655      -2.08529998        1 
