32
Lattice="0.0 0.0 0.0 0.0 0.0 0.0 0.0 0.0 0.0" Properties=species:S:1:pos:R:3:Z:I:1 pbc="F F F"
C       0.38330404       1.14329548       0.68718975        6 
C       0.52544258      -0.41974543       0.81018905        6 
C      -0.97284460       1.66583869       0.25538232        6 
C      -0.83565384      -1.10409096       0.74779180        6 
O      -1.42722042       1.03692210      -0.85203782        8 
O      -1.55281967       2.58221054       0.79364791        8 
O      -0.91925834      -2.14241607      -0.09958003        8 
O      -1.75260318      -0.76088536       1.46573785        8 
C      -2.20175621      -2.79334981      -0.14026540        6 
C      -2.74208452       1.42739654      -1.27742834        6 
C       1.47220726       1.44393536      -0.38754381        6 
C       2.86496578       1.34378316       0.26666823        6 
C       2.99361032      -0.19746595       0.42173768        6 
C       1.66785421      -0.70593692      -0.22973647        6 
O       1.42743338       0.29706240      -1.23546236        8 
H       0.60010148       1.64417355       1.63119430        1 
H       0.87786814      -0.65683058       1.81988205        1 
H      -2.97024173      -2.09274083      -0.47831237        1 
H      -2.78034536       2.50072093      -1.48136030        1 
H       3.62665518       1.74010430      -0.41063152        1 
H       2.93065934       1.89173665       1.21162401        1 
H       3.84823355      -0.58146984      -0.14205586        1 
H       3.10505468      -0.52365765       1.46040995        1 
H      -2.08877542      -3.61410843      -0.84926244        1 
H      -2.47466808      -3.16875374       0.84947988        1 
H      -3.47334658       1.18486849      -0.50063166        1 
H      -2.93797807       0.85501054      -2.18508819        1 
H       1.28939209       2.34504456      -0.97523941        1 
C       1.78868678      -2.07067032      -0.87844979        6 
H       2.69237477      -2.09519782      -1.49583262        1 
H       1.86426652      -2.85592685      -0.11937501        1 
H       0.92425602      -2.28116504      -1.50599154        1 
