32
Lattice="0.0 0.0 0.0 0.0 0.0 0.0 0.0 0.0 0.0" Properties=species:S:1:pos:R:3:Z:I:1 pbc="F F F"
C      -0.87673872      -0.30582400      -0.83622322        6 
C       0.65783090      -0.22355798      -0.67683795        6 
C      -1.62022721       0.67456617       0.06407694        6 
C       1.19372450       1.19769003      -0.61656033        6 
O      -2.95424380       0.54455113      -0.13096011        8 
O      -1.13720020       1.38401104       0.91565154        8 
O       2.43483820       1.25991505      -0.08905921        8 
O       0.65056929       2.14088668      -1.14785789        8 
C       3.03526506       2.56681845      -0.10479008        6 
C      -3.77850520       1.34449094       0.73312008        6 
C      -1.10871531      -1.71004742      -0.20675788        6 
C      -0.34189627      -2.81259175      -0.98407122        6 
C       1.09188312      -2.65820227      -0.39364079        6 
C       0.93823015      -1.34332345       0.40918387        6 
O      -0.36048934      -1.56915462       1.00579495        8 
H      -1.22736387      -0.21808286      -1.86666967        1 
H       1.10240361      -0.57349851      -1.61871793        1 
H       2.41144527       3.27900622       0.44179453        1 
H      -3.57451365       2.40812299       0.58060218        1 
H      -0.76299786      -3.79907677      -0.77327034        1 
H      -0.38179011      -2.65593429      -2.06733326        1 
H       1.32293900      -3.47468922       0.29712851        1 
H       1.87949749      -2.61679652      -1.15285156        1 
H       4.00416777       2.44886155       0.38173468        1 
H       3.15799467       2.92006963      -1.13268299        1 
H      -3.58935338       1.09415221       1.78080544        1 
H      -4.80754577       1.10793338       0.45932823        1 
H      -2.15224223      -1.92906956       0.01880957        1 
C       1.95101835      -1.08416492       1.49877011        6 
H       1.94943022      -1.92849817       2.19600389        1 
H       2.95216897      -0.96519114       1.07901560        1 
H       1.69614831      -0.17218836       2.04348412        1 
