32
Lattice="0.0 0.0 0.0 0.0 0.0 0.0 0.0 0.0 0.0" Properties=species:S:1:pos:R:3:Z:I:1 pbc="F F F"
C      -0.69375738       0.61636377       0.57178194        6 
C       0.73956305       0.01454292       0.65163898        6 
C      -1.81351714      -0.35078670       0.24062864        6 
C       0.90012958      -1.31060705      -0.07700674        6 
O      -2.95464372       0.33104455      -0.01127222        8 
O      -1.76380492      -1.55843292       0.31478680        8 
O       1.45988274      -2.23460958       0.73797615        8 
O       0.65296058      -1.50927439      -1.24438873        8 
C       1.63651263      -3.52930062       0.13951963        6 
C      -4.11130561      -0.48605637      -0.26522122        6 
C      -0.48843391       1.83323398      -0.38284643        6 
C       0.09287996       2.99735647       0.44272784        6 
C       1.50910854       2.43193390       0.75480682        6 
C       1.53860244       1.13569675      -0.11220198        6 
O       0.63056877       1.44873879      -1.18245180        8 
H      -0.97758229       0.99271647       1.56281545        1 
H       1.07844007      -0.10380911       1.68204205        1 
H       2.30042449      -3.46705283      -0.72772980        1 
H      -4.34636630      -1.09865409       0.60998939        1 
H       0.15433565       3.89458259      -0.17952770        1 
H      -0.49491189       3.23885013       1.33413604        1 
H       2.29799536       3.11877157       0.43517621        1 
H       1.66357463       2.21923800       1.81758077        1 
H       2.07563482      -4.15593127       0.91691796        1 
H       0.67086907      -3.92942407      -0.18198159        1 
H      -3.93407622      -1.14388297      -1.12038227        1 
H      -4.92230601       0.21168920      -0.47651847        1 
H      -1.34440573       2.06480417      -1.01516762        1 
C       2.89808725       0.75063872      -0.65540949        6 
H       3.33313315       1.59606803      -1.19733275        1 
H       3.57143093       0.47942648       0.16500199        1 
H       2.81319155      -0.09467593      -1.34197912        1 
