32
Lattice="0.0 0.0 0.0 0.0 0.0 0.0 0.0 0.0 0.0" Properties=species:S:1:pos:R:3:Z:I:1 pbc="F F F"
C       0.37154313       1.11008455       0.64604553        6 
C       0.57535834      -0.43962764       0.84591631        6 
C      -0.97182402       1.67372271       0.22424497        6 
C      -0.72900697      -1.22579585       0.82136855        6 
O      -1.70145019       0.84012223      -0.53879228        8 
O      -1.31685915       2.80415602       0.49817901        8 
O      -0.98926249      -1.86394641      -0.33251637        8 
O      -1.47217568      -1.25378607       1.78049011        8 
C      -2.26561377      -2.51805151      -0.38771779        6 
C      -2.96303671       1.35998052      -0.99030822        6 
C       1.41611130       1.38895359      -0.48778830        6 
C       2.83092231       1.38802388       0.12155827        6 
C       3.02542410      -0.13227440       0.37539241        6 
C       1.70526557      -0.73398239      -0.20189788        6 
O       1.38853645       0.19151958      -1.26181394        8 
H       0.63060688       1.65991664       1.55178235        1 
H       0.94832038      -0.60271478       1.86034951        1 
H      -3.06792405      -1.78758288      -0.25080312        1 
H      -2.81483827       2.27223901      -1.57425827        1 
H       3.55206448       1.76611214      -0.60846043        1 
H       2.90372789       2.00198146       1.02414245        1 
H       3.88101211      -0.52181679      -0.18321232        1 
H       3.17286806      -0.38245618       1.43041292        1 
H      -2.31956616      -2.97044712      -1.37850470        1 
H      -2.34554296      -3.28079494       0.39189295        1 
H      -3.60936303       1.58327951      -0.13687198        1 
H      -3.39698154       0.57284021      -1.60779770        1 
H       1.17458373       2.24690018      -1.11732257        1 
C       1.86479204      -2.14150543      -0.74093811        6 
H       2.73637687      -2.18112965      -1.40194814        1 
H       2.02648442      -2.84666724       0.08226090        1 
H       0.98253052      -2.45220526      -1.29758178        1 
