32
Lattice="0.0 0.0 0.0 0.0 0.0 0.0 0.0 0.0 0.0" Properties=species:S:1:pos:R:3:Z:I:1 pbc="F F F"
C      -0.34794530       0.87270022       0.74030592        6 
C       0.73984408      -0.25140791       0.65278276        6 
C      -1.75474959       0.39339529       0.42297396        6 
C       0.24796487      -1.50750473      -0.04107738        6 
O      -2.45322682       1.28011463      -0.31004428        8 
O      -2.22675993      -0.63399105       0.86211797        8 
O       0.49060160      -2.60310714       0.70949727        8 
O      -0.25649521      -1.54633534      -1.14232351        8 
C       0.02508551      -3.83816302       0.13869901        6 
C      -3.80090959       0.88309827      -0.62311201        6 
C       0.26646160       1.97198995      -0.16947995        6 
C       1.37623585       2.69871582       0.61776971        6 
C       2.46972892       1.59190897       0.65504429        6 
C       1.82503833       0.47586873      -0.21886447        6 
O       1.01311953       1.22561378      -1.13542504        8 
H      -0.41594937       1.22580077       1.77641481        1 
H       1.12527112      -0.52382579       1.63629617        1 
H       0.50987663      -4.02538449      -0.82382861        1 
H      -4.38424972       0.75016754       0.29238987        1 
H       1.71664237       3.57346706       0.05711849        1 
H       1.05451597       3.03319723       1.60924289        1 
H       3.40150334       1.93167890       0.19393191        1 
H       2.70368235       1.24565526       1.66660175        1 
H       0.28768491      -4.61281744       0.86007945        1 
H      -1.05736163      -3.79750635      -0.01035711        1 
H      -3.79588663      -0.05623834      -1.18217892        1 
H      -4.21029525       1.69201869      -1.22886123        1 
H      -0.46163811       2.60591200      -0.67137270        1 
C       2.80076165      -0.41097446      -0.96366551        6 
H       3.48554833       0.20453084      -1.55528102        1 
H       3.38879258      -1.00502273      -0.25584151        1 
H       2.27070868      -1.08564018      -1.64088244        1 
