32
Lattice="0.0 0.0 0.0 0.0 0.0 0.0 0.0 0.0 0.0" Properties=species:S:1:pos:R:3:Z:I:1 pbc="F F F"
C      -0.87642207      -0.33776068      -0.79801706        6 
C       0.65208325      -0.18269863      -0.64741007        6 
C      -1.67562235       0.59236229       0.10358606        6 
C       1.13896887       1.25208729      -0.53916685        6 
O      -2.98388516       0.54826491      -0.24902311        8 
O      -1.26335109       1.19013269       1.06940132        8 
O       2.45362647       1.30221522      -0.22520429        8 
O       0.50051968       2.22686963      -0.86723111        8 
C       3.02560600       2.62130627      -0.20951033        6 
C      -3.86558596       1.30311101       0.59850685        6 
C      -1.03421643      -1.76018660      -0.18074388        6 
C      -0.22996305      -2.81485837      -0.98857986        6 
C       1.20552264      -2.60122326      -0.41885093        6 
C       1.00060453      -1.31150137       0.41168471        6 
O      -0.27534890      -1.60820969       1.02075495        8 
H      -1.23246426      -0.26635147      -1.82766517        1 
H       1.10856291      -0.48968570      -1.59806105        1 
H       2.49410320       3.26044394       0.50071705        1 
H      -3.57047021       2.35583900       0.61811297        1 
H      -0.60124156      -3.82281069      -0.78566725        1 
H      -0.29510756      -2.64457569      -2.06842315        1 
H       1.48967844      -3.41865883       0.25075214        1 
H       1.97638852      -2.50501442      -1.18988602        1 
H       4.06403664       2.48617924       0.09513936        1 
H       2.97013318       3.07520238      -1.20328721        1 
H      -3.84312098       0.91105889       1.61966399        1 
H      -4.85996296       1.18963611       0.16456932        1 
H      -2.06376422      -2.03141490       0.05599671        1 
C       2.01473920      -1.01267753       1.48952165        6 
H       2.06803505      -1.86261727       2.17767605        1 
H       3.00188548      -0.83508333       1.05790278        1 
H       1.71611881      -0.12303222       2.04999859        1 
