32
Lattice="0.0 0.0 0.0 0.0 0.0 0.0 0.0 0.0 0.0" Properties=species:S:1:pos:R:3:Z:I:1 pbc="F F F"
C      -0.09382753       1.09660148       0.40937817        6 
C       0.60779871      -0.23725025       0.87820921        6 
C      -1.48316400       0.98330366      -0.19326230        6 
C      -0.17498108      -1.52874535       0.71350886        6 
O      -2.40488291       1.50863892       0.65299372        8 
O      -1.75812225       0.57140031      -1.29672076        8 
O      -0.47672058      -1.80002889      -0.56586815        8 
O      -0.48882980      -2.24165069       1.64566502        8 
C      -1.25973688      -2.98274672      -0.78673761        6 
C      -3.75884933       1.47735716       0.17142456        6 
C       0.93156387       1.59863087      -0.65830914        6 
C       2.13905706       2.22570490       0.06741987        6 
C       2.82348846       0.94800491       0.63228858        6 
C       1.93280310      -0.18141463       0.03470682        6 
O       1.47967026       0.39668190      -1.19757469        8 
H      -0.15957883       1.78490724       1.25391947        1 
H       0.82277373      -0.18637601       1.94690241        1 
H      -2.19444953      -2.93362498      -0.22130654        1 
H      -4.07266944       0.44801915      -0.02584456        1 
H       2.78264499       2.73209193      -0.65734528        1 
H       1.85563952       2.95087789       0.83652294        1 
H       3.84839758       0.84483211       0.26444725        1 
H       2.85582889       0.92009613       1.72564941        1 
H      -1.45784452      -3.00065473      -1.85818981        1 
H      -0.70630093      -3.87449395      -0.47745968        1 
H      -3.85140337       2.05505965      -0.75287037        1 
H      -4.36355883       1.91783073       0.96486164        1 
H       0.49021075       2.18948976      -1.46090054        1 
C       2.63946734      -1.49737535      -0.21540419        6 
H       3.53447960      -1.32768100      -0.82186229        1 
H       2.94286556      -1.95487932       0.73255447        1 
H       1.98577442      -2.19025331      -0.74993123        1 
