32
Lattice="0.0 0.0 0.0 0.0 0.0 0.0 0.0 0.0 0.0" Properties=species:S:1:pos:R:3:Z:I:1 pbc="F F F"
C       0.20657411       1.10216658       0.82295201        6 
C       0.66848697      -0.40140846       0.81447552        6 
C      -1.23011059       1.42614748       0.44012978        6 
C      -0.35120208      -1.52346555       0.76451392        6 
O      -1.49086835       1.23401198      -0.86317957        8 
O      -2.05544450       1.82179633       1.23869663        8 
O      -1.26020538      -1.40653647      -0.22280465        8 
O      -0.31291900      -2.47476925       1.51795320        8 
C      -2.20584051      -2.48568670      -0.31497272        6 
C      -2.85397518       1.44642394      -1.25238460        6 
C       1.21498299       1.68242724      -0.21475930        6 
C       2.64632139       1.67372392       0.37543810        6 
C       3.03265037       0.17648186       0.19505793        6 
C       1.71325285      -0.41018203      -0.37257489        6 
O       1.26134894       0.65969116      -1.21171282        8 
H       0.33780546       1.52932516       1.81855755        1 
H       1.19398792      -0.60163419       1.75008655        1 
H      -2.77421553      -2.57847457       0.61439598        1 
H      -3.17010191       2.47038149      -1.03312415        1 
H       3.30183822       2.32959115      -0.20375558        1 
H       2.67284625       2.00718236       1.41765420        1 
H       3.82607028       0.05917220      -0.54889521        1 
H       3.35670656      -0.31140697       1.11866666        1 
H      -2.86261629      -2.22533756      -1.14572608        1 
H      -1.69083438      -3.43037109      -0.51095584        1 
H      -3.51118497       0.75283962      -0.71895959        1 
H      -2.88348101       1.25512627      -2.32564529        1 
H       0.89898797       2.62146351      -0.67005333        1 
C       1.83686160      -1.69549228      -1.16158728        6 
H       2.59547877      -1.58317530      -1.94213931        1 
H       2.12779499      -2.52211710      -0.50504599        1 
H       0.88333565      -1.94187558      -1.63684452        1 
