32
Lattice="0.0 0.0 0.0 0.0 0.0 0.0 0.0 0.0 0.0" Properties=species:S:1:pos:R:3:Z:I:1 pbc="F F F"
C      -0.17813396       0.73830977       0.82561378        6 
C       0.69419923      -0.52315476       0.61393116        6 
C      -1.36245902       0.81970988      -0.12952252        6 
C      -0.01230407      -1.83687716       0.33372790        6 
O      -2.07392230       1.94495435       0.11703152        8 
O      -1.60882837       0.06699640      -1.04442238        8 
O      -1.23933990      -1.85880214       0.89758186        8 
O       0.47569185      -2.78786247      -0.23685582        8 
C      -2.00031396      -3.05231662       0.65598649        6 
C      -3.16481236       2.18441060      -0.78889517        6 
C       0.83499480       1.81160354       0.32666806        6 
C       2.12847114       1.81050942       1.18265084        6 
C       2.90642932       0.61707123       0.55166110        6 
C       1.81882671       0.00586194      -0.36364143        6 
O       1.24385666       1.21804905      -0.90902663        8 
H      -0.50979161       0.88929678       1.85522331        1 
H       1.17635640      -0.73551346       1.57840936        1 
H      -1.46505764      -3.93479707       1.01738045        1 
H      -3.88503297       1.36201852      -0.74957892        1 
H       2.66860987       2.75429692       1.06941881        1 
H       1.91768045       1.67252979       2.24859503        1 
H       3.73639524       0.97192166      -0.06674008        1 
H       3.30293608      -0.08946597       1.28775009        1 
H      -2.93625977      -2.91857991       1.19976585        1 
H      -2.19148993      -3.16251425      -0.41511278        1 
H      -2.79539781       2.28048046      -1.81376504        1 
H      -3.62554774       3.11486692      -0.45524271        1 
H       0.39000699       2.78985476       0.14466443        1 
C       2.28936846      -0.88542418      -1.48811438        6 
H       3.02733793      -0.34136747      -2.08689173        1 
H       2.73959251      -1.80040612      -1.09817981        1 
H       1.44898605      -1.16937129      -2.12468693        1 
