32
Lattice="0.0 0.0 0.0 0.0 0.0 0.0 0.0 0.0 0.0" Properties=species:S:1:pos:R:3:Z:I:1 pbc="F F F"
C       0.00245342       0.99719537       0.56095328        6 
C       0.65497164      -0.42344449       0.68004526        6 
C      -1.26983848       1.07070008      -0.26615409        6 
C      -0.19625126      -1.65141497       0.39617862        6 
O      -2.30273501       1.51772718       0.48786043        8 
O      -1.36106839       0.82694933      -1.44764336        8 
O      -1.51827767      -1.39302809       0.45591463        8 
O       0.25048492      -2.76502876       0.22337208        8 
C      -2.38202936      -2.51933938       0.22821804        6 
C      -3.55843039       1.59962129      -0.20274326        6 
C       1.13913837       1.74698278      -0.19268558        6 
C       2.35296790       1.94304007       0.74691980        6 
C       2.98357191       0.52078431       0.71066145        6 
C       1.96997803      -0.24978989      -0.18107072        6 
O       1.59142340       0.76714225      -1.12314173        8 
H      -0.19932624       1.42490292       1.54465707        1 
H       0.94738011      -0.57894729       1.72612244        1 
H      -2.17505262      -3.31353416       0.95048249        1 
H      -3.86071422       0.60980373      -0.55861094        1 
H       3.03417801       2.69353413       0.33693572        1 
H       2.05936324       2.26593731       1.75073259        1 
H       3.95774408       0.53437253       0.21389752        1 
H       3.11366257       0.06999031       1.69934602        1 
H      -3.39599074      -2.13762739       0.35159723        1 
H      -2.23696511      -2.90826714      -0.78313760        1 
H      -3.48743137       2.27321100      -1.06158894        1 
H      -4.27380961       1.97988752       0.52770228        1 
H       0.80789689       2.63724684      -0.72871701        1 
C       2.53393822      -1.44516940      -0.91753794        6 
H       3.41664600      -1.12524970      -1.48073726        1 
H       2.81721043      -2.23666324      -0.22025726        1 
H       1.80146645      -1.85719816      -1.61393138        1 
