32
Lattice="0.0 0.0 0.0 0.0 0.0 0.0 0.0 0.0 0.0" Properties=species:S:1:pos:R:3:Z:I:1 pbc="F F F"
C      -0.56781599       0.99018187      -0.84962273        6 
C      -0.33109168      -0.54056804      -0.71323241        6 
C       0.47279272       1.90721308      -0.22380420        6 
C       1.13711421      -0.93344744      -0.70946056        6 
O       1.07134269       1.36669961       0.85499408        8 
O       0.68500781       3.03300959      -0.62018251        8 
O       1.34093541      -2.16619440      -0.20217218        8 
O       2.01588778      -0.27603890      -1.22456545        8 
C       2.69690244      -2.64114161      -0.27293689        6 
C       2.08782595       2.17944713       1.46001518        6 
C      -1.88059320       1.11596447      -0.02565112        6 
C      -3.02812744       0.33088453      -0.71346709        6 
C      -2.71663446      -1.12236479      -0.24821209        6 
C      -1.34395716      -0.92824597       0.44539993        6 
O      -1.57139952       0.32424071       1.12236750        8 
H      -0.68818875       1.31694322      -1.88365446        1 
H      -0.68967549      -1.02132274      -1.63323194        1 
H       3.36784992      -1.96333340       0.26154699        1 
H       1.68124149       3.15046019       1.75514161        1 
H      -4.00236738       0.67277847      -0.35394245        1 
H      -3.01231713       0.44828030      -1.80175900        1 
H      -3.44580057      -1.46188672       0.49357957        1 
H      -2.69514012      -1.85118357      -1.06471376        1 
H       2.68620786      -3.62481815       0.19764733        1 
H       3.02355335      -2.71363367      -1.31417996        1 
H       2.91203364       2.33434479       0.75756522        1 
H       2.42679484       1.62174397       2.33376079        1 
H      -2.12314525       2.13633495       0.27504125        1 
C      -0.95819226      -1.97994365       1.46120666        6 
H      -1.75328353      -2.05294789       2.21036904        1 
H      -0.82138029      -2.95424303       0.98641490        1 
H      -0.02594501      -1.70766405       1.96018661        1 
