32
Lattice="0.0 0.0 0.0 0.0 0.0 0.0 0.0 0.0 0.0" Properties=species:S:1:pos:R:3:Z:I:1 pbc="F F F"
C      -0.74115481       0.69352656       0.59158799        6 
C       0.64680270       0.01993204       0.78914870        6 
C      -1.91312831      -0.26946984       0.52222257        6 
C       0.72877368      -1.33657257       0.10383604        6 
O      -2.81867635       0.09136374      -0.40987624        8 
O      -2.08567188      -1.16383762       1.32075045        8 
O       1.93327838      -1.91267932       0.31851507        8 
O      -0.10557152      -1.81337120      -0.63309932        8 
C       2.13992039      -3.16283729      -0.36123309        6 
C      -3.97381278      -0.76132279      -0.49018918        6 
C      -0.47008028       1.70124720      -0.56150537        6 
C       0.06337219       2.99117051       0.08405996        6 
C       1.40106087       2.45293864       0.66947542        6 
C       1.52586334       1.05514524      -0.02550309        6 
O       0.71073279       1.19936378      -1.20249331        8 
H      -0.96544343       1.25776679       1.50609741        1 
H       0.95782898      -0.06635411       1.83217850        1 
H       2.07032516      -3.02425463      -1.44392664        1 
H      -4.51722726      -0.76278218       0.45907739        1 
H       0.24490948       3.74473990      -0.68728372        1 
H      -0.60864065       3.41658286       0.83601901        1 
H       2.24905996       3.09026322       0.40482226        1 
H       1.38342429       2.36322387       1.76048040        1 
H       3.14092976      -3.48907574      -0.07676814        1 
H       1.39118824      -3.89668669      -0.05041415        1 
H      -3.67000195      -1.78434945      -0.72788074        1 
H      -4.59058312      -0.34591841      -1.28803252        1 
H      -1.27525502       1.80422683      -1.28600190        1 
C       2.93999706       0.67987195      -0.41824291        6 
H       3.39448590       1.51632747      -0.95855514        1 
H       3.54431839       0.46036262       0.46694843        1 
H       2.95246518      -0.19724981      -1.06627459        1 
