32
Lattice="0.0 0.0 0.0 0.0 0.0 0.0 0.0 0.0 0.0" Properties=species:S:1:pos:R:3:Z:I:1 pbc="F F F"
C      -0.72157575       0.75288666       0.66171214        6 
C       0.67248786       0.06111273       0.72004601        6 
C      -1.72958548      -0.00558851      -0.18191582        6 
C       0.56732599      -1.45352491       0.61779031        6 
O      -2.98277774       0.19656623       0.28278151        8 
O      -1.47690253      -0.64796191      -1.17653508        8 
O       1.64682741      -2.03965040       0.06982794        8 
O      -0.35097853      -2.07793927       1.10631557        8 
C       1.60208654      -3.47785806       0.02851847        6 
C      -4.02018333      -0.44459891      -0.47864051        6 
C      -0.33900935       2.05331255      -0.09930536        6 
C       0.60301937       2.92280351       0.77056980        6 
C       1.96178811       2.19508511       0.55217812        6 
C       1.51976962       0.95615927      -0.27355483        6 
O       0.51552806       1.54891610      -1.12311378        8 
H      -1.14660343       0.94904442       1.64725018        1 
H       1.07895702       0.19621244       1.73042421        1 
H       0.72802680      -3.81276602      -0.53592741        1 
H      -3.85426933      -1.52484016      -0.51160476        1 
H       0.63147791       3.95011030       0.39736047        1 
H       0.28899735       2.95508476       1.81886434        1 
H       2.64050629       2.80475304      -0.05167939        1 
H       2.47665111       1.93399998       1.48196542        1 
H       2.52415925      -3.78312047      -0.46721680        1 
H       1.55125241      -3.88898799       1.04065098        1 
H      -4.04132477      -0.05843831      -1.50210105        1 
H      -4.95168660      -0.21250957       0.03913696        1 
H      -1.18581137       2.57920513      -0.54392243        1 
C       2.59293320       0.32678591      -1.13420802        6 
H       3.04207661       1.10371380      -1.76158462        1 
H       3.37182077      -0.12921257      -0.51791313        1 
H       2.16551377      -0.44563262      -1.77466842        1 
