32
Lattice="0.0 0.0 0.0 0.0 0.0 0.0 0.0 0.0 0.0" Properties=species:S:1:pos:R:3:Z:I:1 pbc="F F F"
C       0.27589387       1.13724481       0.65606632        6 
C       0.44984617      -0.42455234       0.66216593        6 
C      -0.96435398       1.62190527      -0.07981592        6 
C      -0.70955065      -1.18493943       0.05620799        6 
O      -2.07355039       1.28830711       0.62398430        8 
O      -0.98216967       2.25798913      -1.10626519        8 
O      -1.14297171      -2.15109489       0.89654678        8 
O      -1.18604623      -0.99557617      -1.04310135        8 
C      -2.23080503      -2.94858507       0.39808351        6 
C      -3.31693207       1.52245992      -0.05944010        6 
C       1.56583175       1.57047093      -0.07638337        6 
C       2.78770172       1.35737460       0.84458734        6 
C       2.95339895      -0.18809550       0.76250828        6 
C       1.77853170      -0.57680063      -0.17554555        6 
O       1.71798806       0.54401657      -1.06408627        8 
H       0.21494326       1.51229725       1.68241325        1 
H       0.59422987      -0.79418782       1.67870867        1 
H      -1.93418894      -3.47685167      -0.51260970        1 
H      -3.35406946       0.91604758      -0.96896014        1 
H       3.66251657       1.87424472       0.44095140        1 
H       2.61848822       1.72449739       1.86220265        1 
H       3.90010779      -0.46058775       0.28649024        1 
H       2.90752247      -0.68988732       1.73377990        1 
H      -2.46572118      -3.65547907       1.19450848        1 
H      -3.09534670      -2.31757271       0.17334834        1 
H      -3.42301139       2.57815576      -0.32275727        1 
H      -4.09826461       1.21930225       0.63906141        1 
H       1.48904917       2.53965008      -0.56652520        1 
C       1.94824828      -1.86669256      -0.94926103        6 
H       2.89533270      -1.84816977      -1.49691584        1 
H       1.95640367      -2.72440786      -0.26744443        1 
H       1.13325546      -1.99006138      -1.66670806        1 
