32
Lattice="0.0 0.0 0.0 0.0 0.0 0.0 0.0 0.0 0.0" Properties=species:S:1:pos:R:3:Z:I:1 pbc="F F F"
C      -0.32999269       1.07961224       0.82583201        6 
C       0.62234095      -0.15842339       0.72649762        6 
C      -1.77184353       0.88801688       0.37894636        6 
C      -0.08345656      -1.49310075       0.53762570        6 
O      -1.86073571       0.51872208      -0.91429220        8 
O      -2.72877393       1.12410102       1.08363241        8 
O       0.79776979      -2.48222524       0.27579355        8 
O      -1.26803123      -1.69819167       0.69118993        8 
C       0.22587983      -3.79708823       0.15606189        6 
C      -3.18973215       0.22140787      -1.36628714        6 
C       0.41846167       2.07704673      -0.10269912        6 
C       1.72186598       2.54987603       0.58283932        6 
C       2.63293004       1.30675469       0.36794469        6 
C       1.66735164       0.32942143      -0.36054467        6 
O       0.88789099       1.23623756      -1.15654179        8 
H      -0.39610370       1.44809376       1.85103174        1 
H       1.15186510      -0.28582823       1.67824574        1 
H      -0.50177107      -3.82473107      -0.65977101        1 
H      -3.84848319       1.08483309      -1.23777368        1 
H       2.12243436       3.43069477       0.07371918        1 
H       1.57293404       2.80657408       1.63612310        1 
H       3.47188743       1.54450839      -0.29248857        1 
H       3.04108657       0.89316356       1.29537240        1 
H       1.06457243      -4.46179763      -0.05324548        1 
H      -0.27392469      -4.08414309       1.08526480        1 
H      -3.59121516      -0.62483739      -0.80126713        1 
H      -3.09003298      -0.03274165      -2.42247694        1 
H      -0.21121995       2.86736298      -0.51304630        1 
C       2.34085412      -0.68116301      -1.26451684        6 
H       2.98644519      -0.14522995      -1.96791000        1 
H       2.94716727      -1.38223494      -0.68620829        1 
H       1.60422766      -1.25294236      -1.83271690        1 
