32
Lattice="0.0 0.0 0.0 0.0 0.0 0.0 0.0 0.0 0.0" Properties=species:S:1:pos:R:3:Z:I:1 pbc="F F F"
C      -0.02104833       0.86305255       0.53522049        6 
C       0.70274787      -0.51091148       0.73995653        6 
C      -1.53888418       0.90465031       0.55949042        6 
C       0.04121888      -1.73927245       0.10220576        6 
O      -2.05113214       1.56183338      -0.50589917        8 
O      -2.20669023       0.53623910       1.49950312        8 
O      -1.29390613      -1.62014363      -0.00742213        8 
O       0.62200465      -2.76691089      -0.17544615        8 
C      -1.98415655      -2.76496422      -0.53354729        6 
C      -3.47912845       1.71873096      -0.49236354        6 
C       0.77314260       1.47574931      -0.65791579        6 
C       1.94221825       2.26074464      -0.04502769        6 
C       2.70541380       1.08436095       0.62702735        6 
C       2.03689385      -0.17191955      -0.03157608        6 
O       1.45884202       0.36097834      -1.24560536        8 
H       0.20409450       1.45203894       1.43353335        1 
H       0.85686051      -0.74186483       1.79862245        1 
H      -1.79452831      -3.64332754       0.08902546        1 
H      -3.79794138       2.26004421       0.40276994        1 
H       2.54000942       2.71950072      -0.83771641        1 
H       1.62898342       3.04329482       0.65385396        1 
H       3.77479041       1.10936701       0.40355746        1 
H       2.59886868       1.07475320       1.71706167        1 
H      -3.04110442      -2.49778389      -0.51421000        1 
H      -1.65446325      -2.97479267      -1.55495967        1 
H      -3.97044810       0.74140828      -0.50623644        1 
H      -3.72155903       2.28293552      -1.39371596        1 
H       0.16955710       1.98146155      -1.40863333        1 
C       3.03307004      -1.27010179      -0.34818711        6 
H       3.88508966      -0.82986616      -0.87687516        1 
H       3.39702552      -1.72841000       0.57720361        1 
H       2.59299263      -2.05169242      -0.96322815        1 
