32
Lattice="0.0 0.0 0.0 0.0 0.0 0.0 0.0 0.0 0.0" Properties=species:S:1:pos:R:3:Z:I:1 pbc="F F F"
C       0.13166872       0.97349721       0.45483451        6 
C       0.60067718      -0.51996362       0.67905209        6 
C      -1.22583117       1.10684647      -0.19932593        6 
C      -0.36613928      -1.51526474       0.04753475        6 
O      -2.14454263       1.57751862       0.67268605        8 
O      -1.47510915       0.83120166      -1.35335066        8 
O      -1.53529074      -1.48631138       0.73867389        8 
O      -0.18451729      -2.23681897      -0.90361329        8 
C      -2.59918560      -2.26318391       0.16205506        6 
C      -3.48158972       1.66744026       0.15446090        6 
C       1.28665060       1.50136871      -0.45379344        6 
C       2.46921309       1.87815613       0.45561958        6 
C       2.90917658       0.46307642       0.92431306        6 
C       2.02122925      -0.47181991       0.03909003        6 
O       1.76920346       0.33809766      -1.12466810        8 
H       0.09950040       1.50314834       1.40858593        1 
H       0.62950344      -0.74155298       1.75019244        1 
H      -2.32187187      -3.31930145       0.10572462        1 
H      -3.84292408       0.67590701      -0.13445966        1 
H       3.25119570       2.36039741      -0.13734889        1 
H       2.19230642       2.55043705       1.27393005        1 
H       3.96668324       0.27930152       0.71605246        1 
H       2.74849810       0.29381345       1.99425089        1 
H      -3.45414056      -2.12490365       0.82532021        1 
H      -2.82365209      -1.89731967      -0.84395446        1 
H      -3.51563266       2.32341765      -0.71981170        1 
H      -4.08544111       2.07389461       0.96653667        1 
H       0.97857664       2.24597057      -1.18824718        1 
C       2.68940096      -1.77872255      -0.33822372        6 
H       3.66747281      -1.56737318      -0.78222544        1 
H       2.84574988      -2.39425174       0.55541491        1 
H       2.08359459      -2.33691949      -1.04997582        1 
