32
Lattice="0.0 0.0 0.0 0.0 0.0 0.0 0.0 0.0 0.0" Properties=species:S:1:pos:R:3:Z:I:1 pbc="F F F"
C       0.33619748       1.10016574       0.60191521        6 
C       0.58055028      -0.43456176       0.85952207        6 
C      -1.03344111       1.65997135       0.26942637        6 
C      -0.67175716      -1.29576965       0.75440578        6 
O      -1.84067053       0.81124075      -0.39134483        8 
O      -1.33707995       2.80746808       0.52269018        8 
O      -0.89749486      -1.80190074      -0.47120054        8 
O      -1.40012067      -1.49441972       1.70424798        8 
C      -2.13121486      -2.51969128      -0.61197290        6 
C      -3.12329794       1.34431029      -0.76344912        6 
C       1.31819497       1.35254590      -0.60032599        6 
C       2.74218447       1.50449048      -0.03895571        6 
C       3.01566145       0.04041514       0.40159396        6 
C       1.75570808      -0.71114095      -0.13681339        6 
O       1.37073532       0.09470319      -1.26962502        8 
H       0.65680207       1.68197286       1.46746961        1 
H       0.90400479      -0.56859911       1.89466600        1 
H      -2.97554709      -1.85993743      -0.39278083        1 
H      -3.00148834       2.21726618      -1.41014022        1 
H       3.42321250       1.81185555      -0.83749143        1 
H       2.80949279       2.23506324       0.77246987        1 
H       3.91658539      -0.35919808      -0.07203128        1 
H       3.13269358      -0.07195379       1.48394880        1 
H      -2.16015352      -2.85117292      -1.65058309        1 
H      -2.16438805      -3.37466448       0.06915408        1 
H      -3.68769783       1.63565230       0.12647435        1 
H      -3.62986926       0.53819914      -1.29486261        1 
H       0.99355715       2.13181215      -1.29139679        1 
C       2.03580090      -2.14340677      -0.54522200        6 
H       2.88222669      -2.16526619      -1.23909949        1 
H       2.30205730      -2.73837983       0.33607691        1 
H       1.17168860      -2.59626169      -1.02929212        1 
