32
Lattice="0.0 0.0 0.0 0.0 0.0 0.0 0.0 0.0 0.0" Properties=species:S:1:pos:R:3:Z:I:1 pbc="F F F"
C       0.39089924       1.12629954       0.65945956        6 
C       0.56948433      -0.42880427       0.84201333        6 
C      -0.96510892       1.65402890       0.23494274        6 
C      -0.77198964      -1.15085685       0.81862865        6 
O      -1.55848179       0.88171660      -0.69808354        8 
O      -1.43713837       2.69237879       0.64479025        8 
O      -0.98955231      -1.93426327      -0.25011298        8 
O      -1.57739687      -1.00866775       1.71566575        8 
C      -2.29140067      -2.53902133      -0.30440742        6 
C      -2.85468158       1.32481147      -1.13076518        6 
C       1.44475439       1.40023943      -0.46306091        6 
C       2.85602010       1.36458042       0.15495257        6 
C       3.02295585      -0.16297548       0.38566968        6 
C       1.69437824      -0.73271305      -0.20666565        6 
O       1.40266541       0.21391427      -1.25429835        8 
H       0.63555764       1.66819384       1.57348039        1 
H       0.93859491      -0.61211942       1.85510882        1 
H      -3.06249135      -1.76502163      -0.35425494        1 
H      -2.79893487       2.33625696      -1.54176240        1 
H       3.58841292       1.74130920      -0.56450646        1 
H       2.93464118       1.96247814       1.06788454        1 
H       3.87362725      -0.55824710      -0.17637415        1 
H       3.16271061      -0.43214626       1.43711465        1 
H      -2.29422707      -3.14445211      -1.21141869        1 
H      -2.46886279      -3.16005113       0.57779273        1 
H      -3.55496219       1.31837820      -0.29053294        1 
H      -3.16431536       0.61350908      -1.89734351        1 
H       1.22402246       2.26922504      -1.08538170        1 
C       1.83208473      -2.13277971      -0.77059085        6 
H       2.71044918      -2.17611782      -1.42239856        1 
H       1.96898256      -2.85757403       0.03965736        1 
H       0.95023253      -2.41460750      -1.34275409        1 
