32
Lattice="0.0 0.0 0.0 0.0 0.0 0.0 0.0 0.0 0.0" Properties=species:S:1:pos:R:3:Z:I:1 pbc="F F F"
C      -0.08682315       0.82759210       0.64695750        6 
C       0.70098440      -0.52356117       0.63540014        6 
C      -1.36492640       0.83221885      -0.16569456        6 
C      -0.13113758      -1.71659341       0.18608196        6 
O      -2.17030315       1.83853921       0.24549507        8 
O      -1.63626580       0.09916448      -1.09113411        8 
O      -1.19802211      -1.83469882       1.01826220        8 
O       0.10916372      -2.50571978      -0.69645465        8 
C      -2.15165518      -2.83860154       0.63515013        6 
C      -3.38703299       1.98927401      -0.50715329        6 
C       0.94634263       1.76029141      -0.05602800        6 
C       2.14216784       2.01461391       0.88765788        6 
C       2.90279387       0.66423647       0.75871482        6 
C       1.97571512      -0.13937621      -0.19927726        6 
O       1.48401300       0.90919289      -1.06372518        8 
H      -0.32036421       1.17085983       1.65674047        1 
H       0.98946217      -0.76200323       1.66504297        1 
H      -1.67711614      -3.82150555       0.57235482        1 
H      -3.99481867       1.08274452      -0.43522609        1 
H       2.74296611       2.85018259       0.51850260        1 
H       1.82803949       2.24785575       1.90975664        1 
H       3.87758527       0.80591800       0.28306303        1 
H       3.06483551       0.15883228       1.71559195        1 
H      -2.91755839      -2.82954267       1.41214895        1 
H      -2.58400236      -2.58393110      -0.33678250        1 
H      -3.16628508       2.18214522      -1.56076359        1 
H      -3.90644741       2.83717730      -0.05948669        1 
H       0.50699951       2.65033005      -0.50980941        1 
C       2.67477440      -1.20426079      -1.01638039        6 
H       3.54737635      -0.76199934      -1.50822823        1 
H       3.01303810      -2.02162404      -0.37117630        1 
H       2.00268337      -1.62070598      -1.76455487        1 
