32
Lattice="0.0 0.0 0.0 0.0 0.0 0.0 0.0 0.0 0.0" Properties=species:S:1:pos:R:3:Z:I:1 pbc="F F F"
C       0.12762928       1.00822002       0.33117138        6 
C       0.52337208      -0.47191068       0.69462527        6 
C      -1.29350975       1.33098276      -0.08188039        6 
C      -0.31527098      -1.58910780       0.06079090        6 
O      -2.12862429       1.21778729       0.97410281        8 
O      -1.64597216       1.68718185      -1.18495690        8 
O      -1.62590416      -1.27676595      -0.00155446        8 
O       0.09780076      -2.67861670      -0.27031858        8 
C      -2.47748753      -2.29501044      -0.55485702        6 
C      -3.51654589       1.41245484       0.67225786        6 
C       1.22386545       1.38773133      -0.70495709        6 
C       2.41709712       1.93824801       0.08796475        6 
C       2.79997203       0.65862912       0.88148257        6 
C       1.99161063      -0.45879868       0.13089188        6 
O       1.73821889       0.12974270      -1.16184639        8 
H       0.26944136       1.59613354       1.24597318        1 
H       0.48138332      -0.63187284       1.77784656        1 
H      -2.41719274      -3.20932896       0.04163898        1 
H      -3.85199972       0.66772049      -0.05597925        1 
H       3.21577598       2.23451320      -0.59805448        1 
H       2.16711535       2.79459093       0.72238958        1 
H       3.87185100       0.45139369       0.83410393        1 
H       2.52370933       0.71886036       1.93986426        1 
H      -3.48475730      -1.87854383      -0.52481880        1 
H      -2.18393549      -2.52038337      -1.58335103        1 
H      -3.69096469       2.41078228       0.26091638        1 
H      -4.04556123       1.28813262       1.61800657        1 
H       0.86098211       1.97225897      -1.54910992        1 
C       2.76606634      -1.75611101      -0.00657158        6 
H       3.78026536      -1.52930294      -0.35135430        1 
H       2.83365416      -2.26062870       0.96295995        1 
H       2.28935694      -2.43395256      -0.71017867        1 
