32
Lattice="0.0 0.0 0.0 0.0 0.0 0.0 0.0 0.0 0.0" Properties=species:S:1:pos:R:3:Z:I:1 pbc="F F F"
C      -0.43143845       0.77930022       0.43297150        6 
C       0.71562020      -0.17083238       0.84907516        6 
C      -1.84253152       0.22987930       0.38649350        6 
C       0.64870240      -1.61995744       0.39290164        6 
O      -2.68991685       1.21836620       0.00180065        8 
O      -2.22277669      -0.85058326       0.77558642        8 
O      -0.13831174      -1.81640312      -0.67542441        8 
O       1.28654753      -2.50174817       0.93261880        8 
C      -0.22893397      -3.17353883      -1.13172014        6 
C      -4.08325249       0.86489638       0.01141139        6 
C       0.16376162       1.51476251      -0.81535008        6 
C       0.94743449       2.72785773      -0.28675753        6 
C       2.05984489       1.98586573       0.51113105        6 
C       1.88469183       0.50914325       0.02740311        6 
O       1.23038775       0.66397858      -1.24835235        8 
H      -0.52500700       1.53022874       1.22883160        1 
H       0.90888528      -0.17918170       1.92267303        1 
H      -0.63405625      -3.81194652      -0.34185566        1 
H      -4.39970747       0.57937722       1.01887612        1 
H       1.37052085       3.28814685      -1.12519187        1 
H       0.34490146       3.41052868       0.32058567        1 
H       3.05768956       2.35403260       0.25753821        1 
H       1.93954503       2.07469152       1.59573028        1 
H      -0.90194884      -3.14866978      -1.98932404        1 
H       0.75586705      -3.54854588      -1.42493823        1 
H      -4.27359410       0.02850690      -0.66726258        1 
H      -4.61505839       1.75719279      -0.32103966        1 
H      -0.53774351       1.69255046      -1.62947781        1 
C       3.17546308      -0.26732680      -0.12020935        6 
H       3.86919579       0.29681893      -0.75124648        1 
H       3.63583388      -0.42398468       0.86016778        1 
H       3.00822288      -1.24688911      -0.57278542        1 
