32
Lattice="0.0 0.0 0.0 0.0 0.0 0.0 0.0 0.0 0.0" Properties=species:S:1:pos:R:3:Z:I:1 pbc="F F F"
C       0.16610218       1.02174876       0.84705865        6 
C       0.73559657      -0.45250007       0.82699330        6 
C      -1.31393459       1.07767075       0.49260136        6 
C      -0.34278117      -1.51364169       0.72414038        6 
O      -1.55442712       1.63773352      -0.70568516        8 
O      -2.18631016       0.65273366       1.22199849        8 
O      -0.91625033      -1.54516627      -0.50191892        8 
O      -0.64915426      -2.26052585       1.62541372        8 
C      -2.04808330      -2.42487892      -0.61712686        6 
C      -2.92990916       1.62871163      -1.11942997        6 
C       1.10746187       1.69411387      -0.17992927        6 
C       2.52866252       1.81827301       0.41629965        6 
C       3.03955006       0.35655406       0.27148884        6 
C       1.79442162      -0.35204276      -0.32887992        6 
O       1.25382003       0.67533111      -1.17734041        8 
H       0.24976986       1.44072927       1.85344420        1 
H       1.22857312      -0.66498907       1.77729444        1 
H      -2.83237409      -2.10984724       0.07679316        1 
H      -3.55653541       2.15864675      -0.39687712        1 
H       3.12933902       2.51303816      -0.17685658        1 
H       2.52114067       2.17778107       1.45035281        1 
H       3.86745187       0.29556162      -0.44105679        1 
H       3.37054285      -0.08944732       1.21408543        1 
H      -2.38418775      -2.33410382      -1.65086286        1 
H      -1.76157533      -3.45589027      -0.39303705        1 
H      -3.28623803       0.59851261      -1.21101000        1 
H      -2.94737102       2.12790479      -2.08860923        1 
H       0.70540964       2.59707932      -0.63641659        1 
C       2.08848157      -1.60896676      -1.11998349        6 
H       2.83958382      -1.39301588      -1.88603385        1 
H       2.48190043      -2.39033367      -0.46017770        1 
H       1.18515419      -1.97955864      -1.60689192        1 
