32
Lattice="0.0 0.0 0.0 0.0 0.0 0.0 0.0 0.0 0.0" Properties=species:S:1:pos:R:3:Z:I:1 pbc="F F F"
C      -0.11585110       0.90820469       0.55597205        6 
C       0.73860291      -0.36746135       0.81970374        6 
C      -1.61998566       0.72662720       0.59941713        6 
C       0.20388840      -1.68404296       0.27112923        6 
O      -2.24978190       1.43067653      -0.36572249        8 
O      -2.19889786       0.12621878       1.47779784        8 
O      -0.94806809      -1.56700494      -0.41178312        8 
O       0.75835196      -2.74737502       0.45861439        8 
C      -1.49088367      -2.79248738      -0.92839694        6 
C      -3.68437556       1.34605458      -0.33814208        6 
C       0.58178390       1.52377403      -0.69519235        6 
C       1.70990885       2.42883874      -0.17276676        6 
C       2.60521896       1.35483459       0.50800512        6 
C       2.00253409       0.02179612      -0.04454152        6 
O       1.33322047       0.43716677      -1.25542518        8 
H       0.05076457       1.57897686       1.40923364        1 
H       0.97459906      -0.52379413       1.87412033        1 
H      -1.70078509      -3.48774354      -0.11123011        1 
H      -4.07517861       1.73483590       0.60643206        1 
H       2.22695193       2.90009081      -1.01348321        1 
H       1.36378872       3.21364211       0.50779462        1 
H       3.65460717       1.45133830       0.21720976        1 
H       2.56052310       1.39340654       1.60142840        1 
H      -2.41077456      -2.50978830      -1.44090873        1 
H      -0.78786759      -3.25941340      -1.62359980        1 
H      -4.00539887       0.30655651      -0.45071549        1 
H      -4.03086708       1.94964549      -1.17782813        1 
H      -0.08658561       1.94360318      -1.44423056        1 
C       3.03418306      -1.04602999      -0.34108185        6 
H       3.82252135      -0.61683107      -0.96778201        1 
H       3.48199593      -1.40842874       0.58931850        1 
H       2.59819108      -1.90061336      -0.85899903        1 
