32
Lattice="0.0 0.0 0.0 0.0 0.0 0.0 0.0 0.0 0.0" Properties=species:S:1:pos:R:3:Z:I:1 pbc="F F F"
C       0.55119981       1.01855750       0.83450098        6 
C       0.40178107      -0.52869774       0.75313968        6 
C      -0.50770632       1.85432044       0.12929498        6 
C      -1.04624132      -0.98185447       0.85196844        6 
O      -1.32866351       1.13468998      -0.65915069        8 
O      -0.56329487       3.06090483       0.23287008        8 
O      -1.36394038      -2.01439067       0.04951374        8 
O      -1.81199861      -0.51055014       1.66559004        8 
C      -2.71814672      -2.48358438       0.16749413        6 
C      -2.32276402       1.88852390      -1.37100396        6 
C       1.85140824       1.19120152       0.00367195        6 
C       3.04079034       0.46369574       0.67875239        6 
C       2.78960568      -1.00507951       0.22867557        6 
C       1.39222748      -0.88339661      -0.43164840        6 
O       1.54727063       0.37270501      -1.13126674        8 
H       0.63726966       1.39536439       1.85509089        1 
H       0.82816210      -0.94196009       1.67603910        1 
H      -3.41972209      -1.67886553      -0.06897876        1 
H      -1.84651395       2.60534995      -2.04528903        1 
H       3.99365764       0.84686083       0.30402820        1 
H       3.03419781       0.58915966       1.76631754        1 
H       3.51677691      -1.31304587      -0.52850580        1 
H       2.82110721      -1.72897788       1.04925454        1 
H      -2.80783366      -3.29845686      -0.55174518        1 
H      -2.91687048      -2.83884070       1.18248912        1 
H      -2.96519341       2.42761556      -0.66957755        1 
H      -2.89827983       1.15317121      -1.93430887        1 
H       2.03780626       2.21876090      -0.31005871        1 
C       1.03880010      -1.96590817      -1.42693869        6 
H       1.84106964      -2.03809776      -2.16867633        1 
H       0.92347553      -2.93297152      -0.93058317        1 
H       0.10303986      -1.72897893      -1.93479819        1 
