32
Lattice="0.0 0.0 0.0 0.0 0.0 0.0 0.0 0.0 0.0" Properties=species:S:1:pos:R:3:Z:I:1 pbc="F F F"
C      -0.33687422       1.10585145       0.31516333        6 
C       0.45712656      -0.17932003       0.74460774        6 
C      -1.77329572       0.94034655      -0.14392322        6 
C      -0.13282289      -1.46105615       0.14295719        6 
O      -2.55982016       0.60473961       0.90038511        8 
O      -2.17819899       1.14342164      -1.26685327        8 
O       0.78279466      -2.43037764      -0.03803322        8 
O      -1.30120137      -1.62380848      -0.13850227        8 
C       0.27773014      -3.65732575      -0.59530246        6 
C      -3.90227298       0.23729895       0.54942401        6 
C       0.61824791       1.74639039      -0.72812168        6 
C       1.59599252       2.64312194       0.04168787        6 
C       2.31321122       1.55695712       0.89119368        6 
C       1.87068344       0.22728740       0.17766846        6 
O       1.47813029       0.67119728      -1.13625236        8 
H      -0.40590619       1.75102960       1.19809731        1 
H       0.46177706      -0.30611587       1.83249672        1 
H      -0.18665725      -3.47051980      -1.56692891        1 
H      -3.88100452      -0.64850476      -0.09143027        1 
H       2.28894621       3.12221436      -0.65542456        1 
H       1.10762209       3.41908184       0.63981625        1 
H       3.40032041       1.66504249       0.86149567        1 
H       2.01015986       1.57588419       1.94357414        1 
H       1.14740686      -4.30686555      -0.69987169        1 
H      -0.46255944      -4.10667455       0.07243515        1 
H      -4.40685723       1.05415766       0.02580835        1 
H      -4.40427586       0.01688750       1.49261443        1 
H       0.11221148       2.16896024      -1.59464973        1 
C       2.99900214      -0.78357372       0.07456733        6 
H       3.91259058      -0.26436693      -0.23184397        1 
H       3.18047195      -1.26502010       1.04088165        1 
H       2.77453797      -1.55486111      -0.65845959        1 
