32
Lattice="0.0 0.0 0.0 0.0 0.0 0.0 0.0 0.0 0.0" Properties=species:S:1:pos:R:3:Z:I:1 pbc="F F F"
C      -0.27580967       0.92103319       0.77619757        6 
C       0.79414039      -0.23308343       0.79073422        6 
C      -1.64456900       0.52556311       0.22661864        6 
C       0.20035008      -1.63503753       0.73449748        6 
O      -2.26507824       1.57239615      -0.35713667        8 
O      -2.16304653      -0.56453198       0.33248753        8 
O       0.06711247      -2.11502790      -0.51753105        8 
O      -0.06875690      -2.26783477       1.73147485        8 
C      -0.64318101      -3.36025117      -0.61314877        6 
C      -3.58628803       1.29776008      -0.85645691        6 
C       0.44551973       1.94860774      -0.13276174        6 
C       1.69709545       2.50895213       0.58108099        6 
C       2.69845574       1.33773629       0.38803943        6 
C       1.80568698       0.27143671      -0.30562913        6 
O       0.98356578       1.09930954      -1.15416446        8 
H      -0.45453261       1.30565946       1.78659616        1 
H       1.28369227      -0.22082373       1.76717427        1 
H      -1.65831173      -3.22942869      -0.22955842        1 
H      -4.24079714       0.96482331      -0.04609252        1 
H       2.04258038       3.42042450       0.08597298        1 
H       1.50441990       2.75026263       1.63145719        1 
H       3.50953625       1.62330045      -0.28824473        1 
H       3.14461262       0.97948842       1.32059226        1 
H      -0.65913870      -3.60740202      -1.67555012        1 
H      -0.13560448      -4.14207409      -0.04154563        1 
H      -3.54903937       0.51981134      -1.62391894        1 
H      -3.94014523       2.23895356      -1.27809536        1 
H      -0.21290668       2.69048744      -0.57875922        1 
C       2.56734664      -0.74750041      -1.12725171        6 
H       3.26128544      -0.22831762      -1.79605587        1 
H       3.14590929      -1.40778290      -0.47188323        1 
H       1.88605029      -1.35610674      -1.71954452        1 
