32
Lattice="0.0 0.0 0.0 0.0 0.0 0.0 0.0 0.0 0.0" Properties=species:S:1:pos:R:3:Z:I:1 pbc="F F F"
C       0.31833011       1.03098271       0.66233485        6 
C       0.48052203      -0.53886882       0.63074843        6 
C      -0.89137222       1.62659507      -0.05114566        6 
C      -0.71506376      -1.27433753       0.05869972        6 
O      -2.03809649       1.01302958       0.31067697        8 
O      -0.85211881       2.56495164      -0.81489865        8 
O      -1.50088653      -1.74179986       1.05449977        8 
O      -0.97692517      -1.41146938      -1.11703319        8 
C      -2.72124717      -2.36004767       0.62197667        6 
C      -3.21867182       1.45833909      -0.38047277        6 
C       1.62836744       1.46990606      -0.03134091        6 
C       2.83143852       1.21483573       0.90199644        6 
C       2.97958361      -0.32778726       0.77448341        6 
C       1.81361507      -0.67892980      -0.19227067        6 
O       1.77982237       0.47443210      -1.04883746        8 
H       0.25668912       1.37533672       1.70109655        1 
H       0.61929364      -0.90524330       1.65028716        1 
H      -2.51462634      -3.21094951      -0.03327722        1 
H      -3.13595580       1.22257112      -1.44494846        1 
H       3.71759364       1.73388199       0.52696999        1 
H       2.65048182       1.55453917       1.92714143        1 
H       3.93010845      -0.59685011       0.30451950        1 
H       2.91458330      -0.85861112       1.72927831        1 
H      -3.22495482      -2.68750639       1.53233329        1 
H      -3.33853821      -1.63867545       0.07841973        1 
H      -3.35550904       2.53566708      -0.25800070        1 
H      -4.04571909       0.90968606       0.07160684        1 
H       1.56774279       2.45684713      -0.48620744        1 
C       2.01210253      -1.94398852      -1.00085487        6 
H       2.97657237      -1.89804533      -1.51610035        1 
H       2.01434301      -2.82019216      -0.34217031        1 
H       1.21774077      -2.05824526      -1.73881752        1 
