32
Lattice="0.0 0.0 0.0 0.0 0.0 0.0 0.0 0.0 0.0" Properties=species:S:1:pos:R:3:Z:I:1 pbc="F F F"
C       0.13350090       0.83154237       0.61234572        6 
C       0.62609368      -0.66103175       0.68734479        6 
C      -1.35864512       1.12055827       0.59188619        6 
C      -0.25620503      -1.70902066      -0.00371949        6 
O      -1.74165591       1.77910376      -0.52577271        8 
O      -2.09534894       0.91870950       1.53091435        8 
O      -1.56676826      -1.44868548       0.15834526        8 
O       0.13700953      -2.71719579      -0.54915898        8 
C      -2.47320261      -2.41805077      -0.39177142        6 
C      -3.13345756       2.13282781      -0.57243144        6 
C       1.05316361       1.41414440      -0.50491720        6 
C       2.32858013       1.91333283       0.19064053        6 
C       2.86305664       0.55935379       0.73157635        6 
C       1.99852280      -0.48588035      -0.05701340        6 
O       1.54212461       0.26380179      -1.20693255        8 
H       0.41668830       1.28313018       1.56996574        1 
H       0.73985245      -0.98638409       1.72692061        1 
H      -2.32178596      -3.39294665       0.07996795        1 
H      -3.39384446       2.78217153       0.26811914        1 
H       3.01090962       2.34220214      -0.54866576        1 
H       2.14195604       2.66004163       0.96901797        1 
H       3.92461114       0.42034150       0.51226203        1 
H       2.73636413       0.45494053       1.81435366        1 
H      -3.47015937      -2.03422977      -0.17351727        1 
H      -2.32054398      -2.51841936      -1.46990355        1 
H      -3.75579853       1.23430400      -0.52832420        1 
H      -3.27374160       2.65169068      -1.52137665        1 
H       0.56502861       2.09532369      -1.19866512        1 
C       2.79824065      -1.70014693      -0.49005033        6 
H       3.72243849      -1.35771675      -0.96695818        1 
H       3.06385119      -2.30908541       0.38089995        1 
H       2.24165669      -2.32292695      -1.18568827        1 
