32
Lattice="0.0 0.0 0.0 0.0 0.0 0.0 0.0 0.0 0.0" Properties=species:S:1:pos:R:3:Z:I:1 pbc="F F F"
C      -0.85334926       0.60395947       0.94285133        6 
C       0.61150170       0.17638940       0.62262207        6 
C      -2.00371520      -0.26110773       0.44436876        6 
C       0.91037624      -1.28634422       0.34441739        6 
O      -1.91765223      -0.56251647      -0.85762401        8 
O      -2.91505844      -0.61575517       1.16532644        8 
O       2.17129449      -1.55942684       0.77441012        8 
O       0.19960443      -2.12887339      -0.15493601        8 
C       2.61359690      -2.90701127       0.54123201        6 
C      -2.90796595      -1.47828253      -1.34414065        6 
C      -0.86517795       1.96946334       0.18450615        6 
C       0.13178044       2.96134127       0.84156093        6 
C       1.48051732       2.48871022       0.22127834        6 
C       1.02757588       1.20391691      -0.51270804        6 
O      -0.23118717       1.63100891      -1.05048405        8 
H      -1.01318716       0.72135826       2.01576794        1 
H       1.21695938       0.40353319       1.50359169        1 
H       2.60939525      -3.13395065      -0.52883631        1 
H      -3.91613641      -1.08582349      -1.18368588        1 
H      -0.10418796       3.99052206       0.55858872        1 
H       0.11493287       2.90145880       1.93444644        1 
H       1.85126604       3.20933509      -0.51407476        1 
H       2.26908336       2.31328027       0.95888117        1 
H       3.62710915      -2.95626632       0.94099730        1 
H       1.96063106      -3.61874916       1.05419009        1 
H      -2.80884937      -2.43977644      -0.83256778        1 
H      -2.70167605      -1.59025406      -2.40903035        1 
H      -1.86253074       2.36693271      -0.00977599        1 
C       1.92607964       0.67784052      -1.60806163        6 
H       2.10809770       1.46164818      -2.34937291        1 
H       2.88495161       0.35231862      -1.19309747        1 
H       1.45136325      -0.17198408      -2.10878069        1 
