32
Lattice="0.0 0.0 0.0 0.0 0.0 0.0 0.0 0.0 0.0" Properties=species:S:1:pos:R:3:Z:I:1 pbc="F F F"
C      -0.56022116       0.77647252       0.67533650        6 
C       0.80045319       0.00869480       0.81252036        6 
C      -1.72226384       0.00716463       0.06712834        6 
C       0.63343123      -1.50623884       0.75406242        6 
O      -2.81046397       0.81236873       0.02363466        8 
O      -1.72942324      -1.13102657      -0.34410886        8 
O       0.94746627      -2.06414447      -0.42631562        8 
O       0.26272343      -2.13599690       1.72203961        8 
C       0.60391656      -3.45402594      -0.54601410        6 
C      -3.98574753       0.22255096      -0.55960596        6 
C      -0.14227305       1.92681223      -0.28717876        6 
C       0.77907473       2.91897101       0.45460043        6 
C       2.11048863       2.11831861       0.47296176        6 
C       1.69668814       0.78690057      -0.22029276        6 
O       0.73645822       1.25580473      -1.19181831        8 
H      -0.90727738       1.16841528       1.63548019        1 
H       1.17852188       0.17518554       1.82434998        1 
H      -0.47843531      -3.56780317      -0.44603181        1 
H      -4.28490255      -0.66830671      -0.00056110        1 
H       0.87621730       3.84662583      -0.11605879        1 
H       0.40504992       3.17231746       1.45134011        1 
H       2.87685330       2.61658319      -0.12761193        1 
H       2.51768463       1.96633722       1.47717340        1 
H       0.93375778      -3.75193828      -1.54213603        1 
H       1.10675134      -4.04672286       0.22291410        1 
H      -3.79729495      -0.05868369      -1.59963527        1 
H      -4.75766593       0.99079494      -0.50295851        1 
H      -0.97460125       2.37090268      -0.83261700        1 
C       2.83829859       0.06213659      -0.90299856        6 
H       3.40103012       0.76842623      -1.52160886        1 
H       3.51889018      -0.36242033      -0.15652967        1 
H       2.46593573      -0.74681446      -1.52899024        1 
