32
Lattice="0.0 0.0 0.0 0.0 0.0 0.0 0.0 0.0 0.0" Properties=species:S:1:pos:R:3:Z:I:1 pbc="F F F"
C       0.32988824       1.06536117       0.66052655        6 
C       0.47360055      -0.50522672       0.64217375        6 
C      -0.89054848       1.61108489      -0.06857726        6 
C      -0.72256343      -1.20724153       0.03350495        6 
O      -2.02740465       1.12519204       0.48284569        8 
O      -0.87365780       2.39784798      -0.98618185        8 
O      -1.44043303      -1.84470767       0.98415229        8 
O      -1.03209926      -1.19293193      -1.13926735        8 
C      -2.64704449      -2.46678105       0.51499588        6 
C      -3.23836477       1.45709936      -0.21843421        6 
C       1.63692859       1.48613218      -0.04690431        6 
C       2.84175198       1.23653367       0.88653043        6 
C       2.97482213      -0.31037049       0.78638605        6 
C       1.80750019      -0.66505491      -0.17677061        6 
O       1.78170409       0.47418711      -1.04891503        8 
H       0.26781329       1.42172892       1.69433639        1 
H       0.59446199      -0.88173792       1.65957179        1 
H      -2.42213611      -3.23296781      -0.23241562        1 
H      -3.22156077       1.00666220      -1.21501458        1 
H       3.73156344       1.73972007       0.49874160        1 
H       2.66841323       1.59553034       1.90642080        1 
H       3.92378544      -0.59734797       0.32387429        1 
H       2.90161803      -0.82312482       1.75036649        1 
H      -3.11092845      -2.91186146       1.39591449        1 
H      -3.30774432      -1.71966551       0.06580271        1 
H      -3.34825573       2.54043813      -0.31219115        1 
H      -4.04779486       1.03711083       0.38032125        1 
H       1.58191698       2.46550667      -0.51918995        1 
C       1.98502083      -1.94316169      -0.96893940        6 
H       2.94418976      -1.91722147      -1.49514620        1 
H       1.98128672      -2.81093291      -0.29931128        1 
H       1.18337573      -2.05488672      -1.70086214        1 
