32
Lattice="0.0 0.0 0.0 0.0 0.0 0.0 0.0 0.0 0.0" Properties=species:S:1:pos:R:3:Z:I:1 pbc="F F F"
C       0.14595339       1.13118181       0.43172192        6 
C       0.53029767      -0.31417363       0.86483183        6 
C      -1.29129419       1.49422859       0.11350751        6 
C      -0.40493932      -1.44527290       0.48023003        6 
O      -2.18665835       0.63491001       0.63704743        8 
O      -1.59928902       2.48286615      -0.51790880        8 
O      -0.88193944      -1.32960283      -0.77528445        8 
O      -0.64599919      -2.38791696       1.20491063        8 
C      -1.77613695      -2.37328982      -1.18608472        6 
C      -3.56616286       0.93798018       0.36975245        6 
C       1.17239834       1.43185720      -0.70069987        6 
C       2.49013658       1.88011354      -0.04184537        6 
C       2.91558879       0.54929189       0.64619736        6 
C       1.88221150      -0.46278762       0.06110263        6 
O       1.52503711       0.13671332      -1.19588238        8 
H       0.36971226       1.79410386       1.27894179        1 
H       0.68500635      -0.40366588       1.94091736        1 
H      -2.65468612      -2.40136764      -0.53432893        1 
H      -3.75559108       0.91537772      -0.70720482        1 
H       3.20676023       2.16952367      -0.81531906        1 
H       2.37184880       2.71919686       0.65060188        1 
H       3.93173527       0.25614470       0.36723539        1 
H       2.87063923       0.59618399       1.73892114        1 
H      -2.06250929      -2.12772389      -2.20930902        1 
H      -1.27939518      -3.34700312      -1.14842937        1 
H      -3.82639345       1.92749963       0.75539494        1 
H      -4.13830667       0.16170213       0.87869677        1 
H       0.78382963       2.05807626      -1.50258523        1 
C       2.39176907      -1.87345785      -0.14360035        6 
H       3.31816007      -1.85214215      -0.72551734        1 
H       2.58935148      -2.35242423       0.82032752        1 
H       1.65917790      -2.47668004      -0.68666193        1 
