32
Lattice="0.0 0.0 0.0 0.0 0.0 0.0 0.0 0.0 0.0" Properties=species:S:1:pos:R:3:Z:I:1 pbc="F F F"
C       0.25406123       1.11166653       0.50983130        6 
C       0.58321224      -0.38071999       0.86490962        6 
C      -1.15700929       1.62183166       0.28070932        6 
C      -0.52451748      -1.40685041       0.67121622        6 
O      -2.02184832       0.72134622      -0.21716006        8 
O      -1.45260249       2.78154194       0.48690378        8 
O      -0.79889762      -1.67065763      -0.61923592        8 
O      -1.09826417      -1.93917084       1.59901326        8 
C      -1.91365454      -2.54506658      -0.83548342        6 
C      -3.35136514       1.21210715      -0.46160116        6 
C       1.19735793       1.34988023      -0.72767320        6 
C       2.59758997       1.68905637      -0.18645242        6 
C       2.98474380       0.31342183       0.42787187        6 
C       1.82418269      -0.60756413      -0.06937755        6 
O       1.39224214       0.04963138      -1.27614546        8 
H       0.60190836       1.74258790       1.33072955        1 
H       0.85133315      -0.46203651       1.92019518        1 
H      -2.81705804      -2.12102657      -0.38722768        1 
H      -3.32836917       2.04170532      -1.17314720        1 
H       3.25831675       1.95052550      -1.01777550        1 
H       2.59967599       2.51408501       0.53184784        1 
H       3.94252831      -0.04660237       0.04174985        1 
H       3.05316011       0.33354569       1.52008742        1 
H      -2.01924599      -2.62064926      -1.91836190        1 
H      -1.73059841      -3.53002239      -0.39597314        1 
H      -3.80979034       1.55506870       0.47001053        1 
H      -3.90161014       0.36515387      -0.87258231        1 
H       0.79713603       2.02386150      -1.48608659        1 
C       2.23751160      -2.03892349      -0.34325617        6 
H       3.08961577      -2.05051708      -1.03017771        1 
H       2.53936795      -2.52848740       0.58917811        1 
H       1.42122254      -2.60585257      -0.79377249        1 
