32
Lattice="0.0 0.0 0.0 0.0 0.0 0.0 0.0 0.0 0.0" Properties=species:S:1:pos:R:3:Z:I:1 pbc="F F F"
C      -0.83808981      -0.52089879      -0.73384138        6 
C       0.66475721      -0.14655139      -0.68027287        6 
C      -1.70924417       0.36143452       0.14452121        6 
C       0.90788560       1.35047785      -0.57832545        6 
O      -2.99769301       0.29079048      -0.26447998        8 
O      -1.34916275       0.96439610       1.12929180        8 
O       2.14718168       1.64925434      -0.13862879        8 
O       0.13475861       2.18416517      -0.99844961        8 
C       2.46388879       3.05262506      -0.12788727        6 
C      -3.93218168       1.02137954       0.54722920        6 
C      -0.77580247      -1.91691243      -0.04975524        6 
C       0.07185402      -2.90215901      -0.89786685        6 
C       1.51527580      -2.48436882      -0.48606313        6 
C       1.23170711      -1.21001599       0.34977714        6 
O       0.05752734      -1.63559512       1.07370809        8 
H      -1.24680362      -0.55825873      -1.74511310        1 
H       1.10137000      -0.37737369      -1.66065459        1 
H       1.76130950       3.59606930       0.50934558        1 
H      -3.66562356       2.08146515       0.57533447        1 
H      -0.14501200      -3.93707997      -0.62039477        1 
H      -0.12055520      -2.79485852      -1.97047524        1 
H       1.97446679      -3.23999702       0.15819878        1 
H       2.18214496      -2.30498178      -1.33552480        1 
H       3.47763013       3.11989615       0.26839324        1 
H       2.41493848       3.46355302      -1.14025063        1 
H      -3.93991212       0.63140743       1.56939086        1 
H      -4.90518097       0.88080427       0.07458371        1 
H      -1.74306287      -2.29556944       0.28464500        1 
C       2.30040701      -0.79942842       1.33629646        6 
H       2.50238602      -1.64102867       2.00664970        1 
H       3.22305896      -0.51931795       0.82271354        1 
H       1.96255543       0.05380777       1.92810785        1 
