32
Lattice="0.0 0.0 0.0 0.0 0.0 0.0 0.0 0.0 0.0" Properties=species:S:1:pos:R:3:Z:I:1 pbc="F F F"
C      -0.74119478       0.70306500       0.63153624        6 
C       0.65366735       0.02825384       0.76854594        6 
C      -1.90119164      -0.26904272       0.50360720        6 
C       0.72815264      -1.32347160       0.08312311        6 
O      -2.82071090       0.14294778      -0.39217560        8 
O      -2.04763458      -1.22885304       1.22826113        8 
O       1.86091279      -1.97317101       0.43925267        8 
O      -0.03791821      -1.73915345      -0.75723787        8 
C       2.07700536      -3.22629276      -0.23129311        6 
C      -3.96229898      -0.72115977      -0.52773836        6 
C      -0.49333705       1.76711709      -0.47379036        6 
C       0.10590666       3.01103629       0.20733601        6 
C       1.48042709       2.43469272       0.65600888        6 
C       1.51062725       1.05525739      -0.07739913        6 
O       0.63633215       1.26375393      -1.19832338        8 
H      -0.96296745       1.21214581       1.57821204        1 
H       1.00771398      -0.05637323       1.79735992        1 
H       2.18946337      -3.06880610      -1.30810345        1 
H      -4.49832302      -0.80169155       0.42226236        1 
H       0.23487915       3.81044032      -0.52743292        1 
H      -0.50379167       3.39257161       1.03219541        1 
H       2.31155673       3.06103901       0.32027087        1 
H       1.56603083       2.32291575       1.74157453        1 
H       2.99379713      -3.63429126       0.19581820        1 
H       1.23509417      -3.90239537      -0.05958712        1 
H      -3.64338651      -1.71840687      -0.84250368        1 
H      -4.59168082      -0.25831361      -1.28873744        1 
H      -1.32878153       1.92959587      -1.15146589        1 
C       2.87909212       0.61862229      -0.55682792        6 
H       3.33560541       1.42990089      -1.13253358        1 
H       3.52756116       0.37725716       0.29053619        1 
H       2.81187729      -0.26215593      -1.19926802        1 
