32
Lattice="0.0 0.0 0.0 0.0 0.0 0.0 0.0 0.0 0.0" Properties=species:S:1:pos:R:3:Z:I:1 pbc="F F F"
C       0.19845124       1.16524474       0.48984298        6 
C       0.55704251      -0.31365002       0.86616241        6 
C      -1.20775794       1.50867631       0.02495400        6 
C      -0.51133803      -1.35904595       0.59841746        6 
O      -2.14506083       0.70422304       0.56233748        8 
O      -1.46563877       2.43861704      -0.70838985        8 
O      -0.82808887      -1.44607451      -0.71253684        8 
O      -0.98474883      -2.07868173       1.45044409        8 
C      -1.86603798      -2.38573476      -1.02455984        6 
C      -3.50109175       0.98009923       0.17277883        6 
C       1.28119337       1.49508230      -0.57368086        6 
C       2.61644632       1.78027338       0.13988550        6 
C       2.98791012       0.34987685       0.62641065        6 
C       1.85277867      -0.51084464      -0.00480451        6 
O       1.52691494       0.22902480      -1.19414299        8 
H       0.33725638       1.79704825       1.37678224        1 
H       0.77686183      -0.40522941       1.93118700        1 
H      -2.79330557      -2.11016667      -0.51280575        1 
H      -3.61070540       0.88108750      -0.91081121        1 
H       3.34883174       2.15689683      -0.57943992        1 
H       2.52651433       2.51186373       0.94881979        1 
H       3.95695341       0.03032323       0.23225881        1 
H       3.02498257       0.25636424       1.71627481        1 
H      -1.99332646      -2.33360044      -2.10638056        1 
H      -1.58164963      -3.39585816      -0.71626791        1 
H      -3.78738806       1.99344146       0.46747450        1 
H      -4.10828823       0.23918555       0.69346496        1 
H       0.95914558       2.22420436      -1.31575032        1 
C       2.24168718      -1.93520142      -0.34219185        6 
H       3.14799982      -1.93555691      -0.95548843        1 
H       2.44032796      -2.50294723       0.57318114        1 
H       1.44597294      -2.43205750      -0.90128746        1 
