32
Lattice="0.0 0.0 0.0 0.0 0.0 0.0 0.0 0.0 0.0" Properties=species:S:1:pos:R:3:Z:I:1 pbc="F F F"
C      -0.83137084      -0.51277762      -0.49572343        6 
C       0.62685870      -0.04025773      -0.70984737        6 
C      -1.87840848       0.56531761      -0.30092291        6 
C       0.98870943       1.24327256       0.01695623        6 
O      -3.04808807       0.00355860       0.08941239        8 
O      -1.76941429       1.72889271      -0.61314118        8 
O       2.06477817       1.81669598      -0.57848345        8 
O       0.50761740       1.64239168       1.05109045        8 
C       2.57492231       2.98059274       0.09134571        6 
C      -4.15460061       0.91509873       0.20124995        6 
C      -0.67651617      -1.64420256       0.56724207        6 
C      -0.31951009      -2.93867958      -0.18608595        6 
C       1.08758499      -2.55105335      -0.72846894        6 
C       1.37528275      -1.21920832       0.03439296        6 
O       0.56302389      -1.34292733       1.21439824        8 
H      -1.16938826      -0.98086839      -1.43068597        1 
H       0.91209929       0.03593750      -1.76013529        1 
H       2.90208356       2.72780725       1.10456432        1 
H      -4.35983594       1.38900697      -0.76304573        1 
H      -0.25440685      -3.77113476       0.52003957        1 
H      -1.03682606      -3.20433672      -0.96896724        1 
H       1.84152435      -3.30217418      -0.47548259        1 
H       1.10687899      -2.41414789      -1.81429033        1 
H       3.41750928       3.32174754      -0.51133004        1 
H       1.80448130       3.75415941       0.15329423        1 
H      -3.93653609       1.69274001       0.93833742        1 
H      -5.00299552       0.30886079       0.52112882        1 
H      -1.48266397      -1.70591171       1.29655095        1 
C       2.82325103      -0.99355349       0.41500947        6 
H       3.20423817      -1.87562874       0.93886670        1 
H       3.43488183      -0.81829350      -0.47526295        1 
H       2.92256608      -0.13175720       1.07982402        1 
