32
Lattice="0.0 0.0 0.0 0.0 0.0 0.0 0.0 0.0 0.0" Properties=species:S:1:pos:R:3:Z:I:1 pbc="F F F"
C       0.08487856       1.08926440       0.36135290        6 
C       0.53914226      -0.34337236       0.79856504        6 
C      -1.36356137       1.29226434      -0.03801019        6 
C      -0.26279697      -1.53970675       0.30579634        6 
O      -2.17758734       0.97713984       0.99607063        8 
O      -1.75488760       1.74544841      -1.08975838        8 
O      -1.28964232      -1.22427337      -0.50230079        8 
O      -0.00904147      -2.67935637       0.63756760        8 
C      -2.03838567      -2.33436553      -1.02420767        6 
C      -3.58141343       1.07200049       0.71335801        6 
C       1.11853609       1.44268244      -0.74195964        6 
C       2.36381180       2.01734914      -0.04904922        6 
C       2.84192212       0.75476293       0.72103888        6 
C       1.95577626      -0.37051367       0.09425106        6 
O       1.59843795       0.16747828      -1.19238417        8 
H       0.21790325       1.74893330       1.22786856        1 
H       0.61940523      -0.45054880       1.88271765        1 
H      -2.50937318      -2.89239683      -0.21002258        1 
H      -3.85187742       0.38240917      -0.09223411        1 
H       3.09747941       2.32540665      -0.79931785        1 
H       2.14877728       2.87447973       0.59679826        1 
H       3.90042677       0.54632913       0.54374308        1 
H       2.69692820       0.83218707       1.80337225        1 
H      -2.78933142      -1.89357256      -1.68016653        1 
H      -1.38198026      -3.00611144      -1.58352609        1 
H      -3.85093472       2.08868615       0.41355635        1 
H      -4.08875088       0.79617971       1.63873870        1 
H       0.70457102       2.00423740      -1.57789781        1 
C       2.66071069      -1.70209416      -0.05823979        6 
H       3.62100534      -1.54307652      -0.55924604        1 
H       2.84207675      -2.15099279       0.92254415        1 
H       2.07044371      -2.40719448      -0.64455320        1 
