32
Lattice="0.0 0.0 0.0 0.0 0.0 0.0 0.0 0.0 0.0" Properties=species:S:1:pos:R:3:Z:I:1 pbc="F F F"
C       0.32584704       1.12446106       0.60537956        6 
C       0.60891798      -0.40455396       0.88424587        6 
C      -1.11079649       1.55043190       0.38116326        6 
C      -0.64261921      -1.26028979       0.73540738        6 
O      -1.67349985       0.93402061      -0.67969225        8 
O      -1.68389367       2.38127995       1.05205175        8 
O      -0.82951766      -1.76803748      -0.49442350        8 
O      -1.42640034      -1.41799688       1.64926320        8 
C      -2.06790818      -2.46823265      -0.68301929        6 
C      -3.04276378       1.28653919      -0.93816235        6 
C       1.25472302       1.36925128      -0.63272792        6 
C       2.68386707       1.60037592      -0.11166919        6 
C       3.01726691       0.17067645       0.39850756        6 
C       1.78987959      -0.65633501      -0.10589919        6 
O       1.35759000       0.09109167      -1.25954354        8 
H       0.65494622       1.71976386       1.45841272        1 
H       0.91304410      -0.53393398       1.92546829        1 
H      -2.91141268      -1.79394660      -0.50984406        1 
H      -3.13590258       2.35957876      -1.12711243        1 
H       3.33644695       1.88551428      -0.94161496        1 
H       2.74712736       2.37359207       0.65977474        1 
H       3.93700127      -0.21352840      -0.05109808        1 
H       3.13193851       0.11567224       1.48576421        1 
H      -2.05455300      -2.80982612      -1.71849390        1 
H      -2.14498493      -3.31499846       0.00460833        1 
H      -3.67067083       1.02110533      -0.08275175        1 
H      -3.32869896       0.71335867      -1.82075482        1 
H       0.87660704       2.10061740      -1.34808359        1 
C       2.13006761      -2.08827324      -0.46804802        6 
H       2.95950481      -2.09566650      -1.18253508        1 
H       2.44652210      -2.63550388       0.42737180        1 
H       1.27827265      -2.60055133      -0.91418127        1 
