32
Lattice="0.0 0.0 0.0 0.0 0.0 0.0 0.0 0.0 0.0" Properties=species:S:1:pos:R:3:Z:I:1 pbc="F F F"
C       0.21040104       1.06859258       0.60359786        6 
C       0.56924127      -0.45634385       0.82585733        6 
C      -1.27056613       1.39126375       0.54268923        6 
C      -0.62939899      -1.34876734       0.49849563        6 
O      -1.71116198       1.53560037      -0.72853084        8 
O      -1.96445157       1.56946587       1.51662264        8 
O      -0.48971710      -2.11851730      -0.59607310        8 
O      -1.62610659      -1.36549809       1.18935586        8 
C      -1.62946283      -2.93445531      -0.91764927        6 
C      -3.11957688       1.80026271      -0.85170885        6 
C       1.10391332       1.41041769      -0.62904083        6 
C       2.49083267       1.79076089      -0.08688483        6 
C       2.91793775       0.42118086       0.50800985        6 
C       1.83479921      -0.55184309      -0.07767270        6 
O       1.36986543       0.14661750      -1.25095866        8 
H       0.55403346       1.61990086       1.48275730        1 
H       0.78196838      -0.63649502       1.88293986        1 
H      -2.50667174      -2.30757140      -1.10002425        1 
H      -3.38030250       2.73452094      -0.34678440        1 
H       3.14280973       2.08357231      -0.91462066        1 
H       2.46981660       2.60391533       0.64566214        1 
H       3.91592380       0.12383524       0.17486587        1 
H       2.92040697       0.41520509       1.60310209        1 
H      -1.35079235      -3.47875660      -1.82039589        1 
H      -1.85222144      -3.62486673      -0.09946397        1 
H      -3.69701853       0.98525902      -0.40607003        1 
H      -3.31200881       1.87227031      -1.92275537        1 
H       0.65136946       2.08830107      -1.35068780        1 
C       2.40309859      -1.91476536      -0.42431541        6 
H       3.26982884      -1.78299798      -1.07992633        1 
H       2.74079318      -2.42024823       0.48786150        1 
H       1.67291369      -2.54477312      -0.92776053        1 
