32
Lattice="0.0 0.0 0.0 0.0 0.0 0.0 0.0 0.0 0.0" Properties=species:S:1:pos:R:3:Z:I:1 pbc="F F F"
C       0.02904706       1.09269321       0.55529666        6 
C       0.57191197      -0.36108637       0.82995317        6 
C      -1.47935161       1.25753268       0.49963642        6 
C      -0.46058144      -1.41592179       0.41152610        6 
O      -1.94003166       1.30423855      -0.77069480        8 
O      -2.17229254       1.43437041       1.47507486        8 
O       0.02222377      -2.41449033      -0.34663517        8 
O      -1.62190644      -1.37199972       0.75974574        8 
C      -0.94218905      -3.40517096      -0.74459354        6 
C      -3.36998426       1.38761121      -0.88805888        6 
C       0.88497548       1.51067253      -0.68134641        6 
C       2.17843049       2.13055155      -0.13256404        6 
C       2.76859281       0.88263854       0.57920286        6 
C       1.89257524      -0.28458420      -0.00531007        6 
O       1.37024315       0.27554989      -1.22852917        8 
H       0.30506186       1.70842254       1.41581363        1 
H       0.74684787      -0.51054691       1.90033973        1 
H      -1.73953371      -2.94361139      -1.33311211        1 
H      -3.74501734       2.29024996      -0.39770466        1 
H       2.81486959       2.45249064      -0.96156659        1 
H       2.01231606       2.98295696       0.53368993        1 
H       3.82237087       0.73023705       0.33273481        1 
H       2.69198664       0.94149598       1.66999474        1 
H      -0.38614034      -4.12512079      -1.34579218        1 
H      -1.38190881      -3.88822412       0.13215799        1 
H      -3.83242666       0.51121795      -0.42522737        1 
H      -3.57666454       1.41491252      -1.95880969        1 
H       0.34792354       2.06829148      -1.44651757        1 
C       2.71083183      -1.53470647      -0.27605602        6 
H       3.62142767      -1.25466709      -0.81510631        1 
H       3.00514885      -2.00496321       0.66914672        1 
H       2.15855015      -2.25865099      -0.86912983        1 
