32
Lattice="0.0 0.0 0.0 0.0 0.0 0.0 0.0 0.0 0.0" Properties=species:S:1:pos:R:3:Z:I:1 pbc="F F F"
C       0.07538375       1.02719905       0.46288654        6 
C       0.60736944      -0.44328037       0.68718964        6 
C      -1.26983449       1.18393926      -0.22239234        6 
C      -0.27697290      -1.61325548       0.26612404        6 
O      -2.24971540       1.41502558       0.68093891        8 
O      -1.45304754       1.15781688      -1.41915733        8 
O      -1.59004375      -1.31276722       0.32293953        8 
O       0.12508921      -2.72679010       0.00803180        8 
C      -2.48695769      -2.38075614      -0.02687112        6 
C      -3.56825435       1.51157470       0.12447372        6 
C       1.21030337       1.62026457      -0.41982386        6 
C       2.41179462       1.97160378       0.47560269        6 
C       2.92437790       0.54684353       0.82497027        6 
C       1.99871434      -0.35976244      -0.04827130        6 
O       1.68176437       0.49473989      -1.16040556        8 
H       0.00728830       1.53774339       1.42646845        1 
H       0.76175668      -0.61201769       1.75962358        1 
H      -2.31946264      -3.24890153       0.61601269        1 
H      -3.83196933       0.58212079      -0.38943924        1 
H       3.15400207       2.53111193      -0.10045304        1 
H       2.13500079       2.56966200       1.34968320        1 
H       3.96656119       0.41133920       0.52330178        1 
H       2.85391164       0.31022225       1.89126099        1 
H      -3.48937598      -1.97774632       0.12001580        1 
H      -2.33833951      -2.67273953      -1.06980405        1 
H      -3.62963561       2.33658585      -0.59113145        1 
H      -4.23497548       1.68545456       0.97016260        1 
H       0.87538643       2.39582566      -1.10810306        1 
C       2.66808513      -1.62371758      -0.54912869        6 
H       3.62220502      -1.34999797      -1.01118984        1 
H       2.85709384      -2.31891151       0.27328742        1 
H       2.04918257      -2.13437368      -1.28576766        1 
