32
Lattice="0.0 0.0 0.0 0.0 0.0 0.0 0.0 0.0 0.0" Properties=species:S:1:pos:R:3:Z:I:1 pbc="F F F"
C      -0.24235771       0.78169088      -0.90797646        6 
C      -0.53073449      -0.74270309      -0.57391383        6 
C       1.10787795       1.26111190      -0.38866476        6 
C       0.71393977      -1.41825723      -0.02566287        6 
O       1.03814526       1.75935802       0.85734442        8 
O       2.14045959       1.17743400      -1.02216923        8 
O       1.53715270      -1.71232789      -1.05355005        8 
O       1.00623485      -1.58741784       1.13886368        8 
C       2.86792649      -2.11567836      -0.69139090        6 
C       2.29660188       2.12449023       1.44597150        6 
C      -1.46325016       1.43542497      -0.21189612        6 
C      -2.74484576       1.11812793      -1.01741529        6 
C      -3.00290166      -0.35424945      -0.58923081        6 
C      -1.79089069      -0.63073997       0.34530308        6 
O      -1.61538942       0.65137375       0.97446279        8 
H      -0.22099300       0.93687560      -1.98809483        1 
H      -0.77457212      -1.26037729      -1.50546442        1 
H       2.84431717      -2.95328228       0.01050738        1 
H       2.82120421       2.85222913       0.82071361        1 
H      -3.56134920       1.77548721      -0.70672971        1 
H      -2.60593278       1.24035448      -2.09639345        1 
H      -3.92697041      -0.44231577      -0.01071295        1 
H      -3.06238779      -1.05312785      -1.42923071        1 
H       3.35002645      -2.40471864      -1.62556968        1 
H       3.39366926      -1.27000715      -0.23975949        1 
H       2.92293048       1.23578873       1.56603877        1 
H       2.05002727       2.55145050       2.41816603        1 
H      -1.31980680       2.48126071       0.05826766        1 
C      -2.01260615      -1.71409855       1.37931027        6 
H      -2.91707563      -1.48830120       1.95340514        1 
H      -2.14973164      -2.68430813       0.88834549        1 
H      -1.16196437      -1.78195368       2.05734904        1 
