32
Lattice="0.0 0.0 0.0 0.0 0.0 0.0 0.0 0.0 0.0" Properties=species:S:1:pos:R:3:Z:I:1 pbc="F F F"
C       0.10157784       1.09588983       0.36678717        6 
C       0.51015853      -0.33000156       0.83672801        6 
C      -1.35305746       1.38097047       0.05789823        6 
C      -0.30957062      -1.50299748       0.32330038        6 
O      -2.16768661       0.78036047       0.95289472        8 
O      -1.74417323       2.10105602      -0.83418314        8 
O      -1.15140899      -1.18478076      -0.67696233        8 
O      -0.19941501      -2.62665764       0.76911957        8 
C      -1.90059221      -2.27852851      -1.22929805        6 
C      -3.57240212       0.95813097       0.71472674        6 
C       1.11245734       1.38388977      -0.77730659        6 
C       2.38416911       1.96052032      -0.13384530        6 
C       2.83756298       0.72588354       0.69682299        6 
C       1.92468459      -0.40839482       0.12664169        6 
O       1.56635741       0.08310293      -1.17911785        8 
H       0.31156803       1.77705753       1.20339805        1 
H       0.58002513      -0.43235381       1.92080491        1 
H      -2.55063881      -2.71856581      -0.46736063        1 
H      -3.84877647       0.51780589      -0.24816885        1 
H       3.11351065       2.20301019      -0.91167430        1 
H       2.20600965       2.85768064       0.46749438        1 
H       3.89140329       0.48639486       0.53129265        1 
H       2.69406960       0.85948243       1.77415563        1 
H      -2.48943283      -1.84776347      -2.03947690        1 
H      -1.22683158      -3.05092061      -1.60988108        1 
H      -3.83547494       2.01946162       0.70703092        1 
H      -4.07749213       0.44100738       1.53140035        1 
H       0.69028321       1.92050855      -1.62552388        1 
C       2.59404573      -1.76286832       0.02926500        6 
H       3.54854514      -1.65698645      -0.49579579        1 
H       2.78179311      -2.16535956       1.02920608        1 
H       1.97582604      -2.48245759      -0.50992906        1 
