32
Lattice="0.0 0.0 0.0 0.0 0.0 0.0 0.0 0.0 0.0" Properties=species:S:1:pos:R:3:Z:I:1 pbc="F F F"
C       0.09465169       0.99762264       0.84603091        6 
C       0.73602808      -0.44587041       0.80615299        6 
C      -1.37279981       1.00572155       0.42669085        6 
C      -0.29758133      -1.55597415       0.73791091        6 
O      -1.61560279       1.77733504      -0.64834059        8 
O      -2.24052338       0.39593625       1.01647087        8 
O      -0.75679146      -1.76233159      -0.51713878        8 
O      -0.64604150      -2.20849847       1.69507435        8 
C      -1.84947764      -2.69216234      -0.61445368        6 
C      -2.98087273       1.78603196      -1.09881068        6 
C       1.03731168       1.74006488      -0.12927793        6 
C       2.44235452       1.88606486       0.50014353        6 
C       3.01047138       0.45441254       0.29370696        6 
C       1.79626774      -0.27680033      -0.34159873        6 
O       1.22993770       0.76269505      -1.16126528        8 
H       0.11938232       1.39526292       1.86502395        1 
H       1.24207524      -0.62948422       1.75628426        1 
H      -2.70273265      -2.31739846      -0.04236503        1 
H      -3.64560339       2.14383552      -0.30782337        1 
H       3.02700658       2.63312146      -0.04329887        1 
H       2.40058427       2.19186714       1.55065815        1 
H       3.84120732       0.45805951      -0.41838274        1 
H       3.35848037      -0.01948606       1.21641511        1 
H      -2.08942387      -2.75102232      -1.67685914        1 
H      -1.55827879      -3.67245009      -0.22780538        1 
H      -3.28818764       0.77796933      -1.39126074        1 
H      -3.00064394       2.45800209      -1.95714849        1 
H       0.61692134       2.64715857      -0.55898377        1 
C       2.14830802      -1.49263025      -1.17168822        6 
H       2.90826177      -1.22283235      -1.91172463        1 
H       2.55502833      -2.28304847      -0.53086423        1 
H       1.26885815      -1.87731251      -1.68784666        1 
