32
Lattice="0.0 0.0 0.0 0.0 0.0 0.0 0.0 0.0 0.0" Properties=species:S:1:pos:R:3:Z:I:1 pbc="F F F"
C      -0.30416252       0.96316645      -0.95286554        6 
C      -0.41571994      -0.57294178      -0.63087292        6 
C       1.00963080       1.60483361      -0.52939029        6 
C       0.85240276      -1.24339862      -0.13912566        6 
O       1.04961399       1.89868144       0.77691417        8 
O       1.93208487       1.78467912      -1.29871453        8 
O       1.10219704      -2.35265608      -0.87385992        8 
O       1.55150175      -0.89576045       0.78830981        8 
C       2.27201086      -3.09318241      -0.48431031        6 
C       2.33272289       2.30535178       1.27533084        6 
C      -1.53698518       1.48748780      -0.16652062        6 
C      -2.83949463       1.02869306      -0.86652632        6 
C      -2.91311342      -0.45830755      -0.40985297        6 
C      -1.60256817      -0.59074641       0.41060995        6 
O      -1.51305587       0.69812513       1.02674776        8 
H      -0.38545099       1.13233418      -2.02844695        1 
H      -0.71551385      -1.10739536      -1.53351168        1 
H       2.17169307      -3.45567628       0.54293232        1 
H       2.71106224       3.16975217       0.72284210        1 
H      -3.69301713       1.60308298      -0.49689874        1 
H      -2.79729469       1.14763390      -1.95361218        1 
H      -3.76888403      -0.62776608       0.25055009        1 
H      -2.97523882      -1.17235594      -1.23642374        1 
H       2.33614704      -3.92782689      -1.18303703        1 
H       3.16266166      -2.46247498      -0.55108945        1 
H       3.03635467       1.47403260       1.18163706        1 
H       2.17200845       2.55364877       2.32475617        1 
H      -1.48702062       2.54440405       0.09519305        1 
C      -1.57472791      -1.68733715       1.45316936        6 
H      -2.43456048      -1.58410961       2.12172848        1 
H      -1.62019794      -2.67147171       0.97368355        1 
H      -0.65872619      -1.62400875       2.04597710        1 
