32
Lattice="0.0 0.0 0.0 0.0 0.0 0.0 0.0 0.0 0.0" Properties=species:S:1:pos:R:3:Z:I:1 pbc="F F F"
C       0.27532420       1.11329383       0.71893662        6 
C       0.64071929      -0.41889350       0.85705787        6 
C      -1.17303630       1.48352045       0.44982062        6 
C      -0.50857299      -1.41016125       0.76269103        6 
O      -1.57762005       1.14447979      -0.78741646        8 
O      -1.88820692       2.03414322       1.26145856        8 
O      -1.01770290      -1.53649305      -0.47705055        8 
O      -0.92585958      -2.03149127       1.71850580        8 
C      -2.13054201      -2.43668248      -0.59487338        6 
C      -2.95093739       1.43446388      -1.08779961        6 
C       1.22799492       1.52508069      -0.44900568        6 
C       2.66291199       1.66268542       0.09850381        6 
C       3.02742697       0.16636999       0.31309727        6 
C       1.75999707      -0.55570860      -0.23512075        6 
O       1.30569035       0.34886102      -1.25437735        8 
H       0.52698305       1.63205505       1.64514524        1 
H       1.04947415      -0.59679155       1.85344516        1 
H      -2.96216365      -2.09953035       0.03070872        1 
H      -3.15014591       2.50677719      -1.00340811        1 
H       3.30626151       2.12506672      -0.65509762        1 
H       2.71826472       2.26525202       1.01027738        1 
H       3.90150367      -0.12203341      -0.27781594        1 
H       3.23205890      -0.08434334       1.35815894        1 
H      -2.40862849      -2.41774703      -1.64904005        1 
H      -1.84655093      -3.44691839      -0.28656053        1 
H      -3.61247995       0.89970422      -0.39969776        1 
H      -3.10276114       1.09312100      -2.11214004        1 
H       0.86446397       2.35757307      -1.05187276        1 
C       2.00940240      -1.93669356      -0.80579689        6 
H       2.82879655      -1.89665822      -1.53004161        1 
H       2.28771872      -2.63253620      -0.00650766        1 
H       1.11700722      -2.31399788      -1.30811679        1 
