32
Lattice="0.0 0.0 0.0 0.0 0.0 0.0 0.0 0.0 0.0" Properties=species:S:1:pos:R:3:Z:I:1 pbc="F F F"
C      -0.50251035       0.81574910       0.40758629        6 
C       0.70550108      -0.05917651       0.87219648        6 
C      -1.82761392       0.14272264       0.09719930        6 
C       0.61342760      -1.55844324       0.61920892        6 
O      -2.83067397       1.01657966       0.36955483        8 
O      -2.03389218      -0.97645046      -0.31508719        8 
O       0.52099350      -1.87172800      -0.68169935        8 
O       0.62682075      -2.37730552       1.51560646        8 
C       0.24044758      -3.25010540      -0.96273024        6 
C      -4.15459467       0.53308764       0.08534389        6 
C       0.12439743       1.62000709      -0.78825055        6 
C       0.87428909       2.82530109      -0.19102616        6 
C       2.03098224       2.08231899       0.53915076        6 
C       1.85025184       0.61591741       0.03287095        6 
O       1.19822471       0.79921243      -1.23789512        8 
H      -0.73631184       1.52406460       1.20644435        1 
H       0.87170190       0.04324108       1.94597219        1 
H      -0.73980094      -3.51305094      -0.55638369        1 
H      -4.37156057      -0.36008621       0.67808033        1 
H       1.25811169       3.45348122      -0.99963565        1 
H       0.25797028       3.44506284       0.46712940        1 
H       3.01020318       2.46750903       0.24113400        1 
H       1.96446194       2.15086396       1.62960549        1 
H       0.23613736      -3.32937487      -2.05032467        1 
H       1.00338187      -3.90241702      -0.52885979        1 
H      -4.25563222       0.28473376      -0.97518627        1 
H      -4.82816129       1.34719656       0.35537446        1 
H      -0.55861967       1.83196544      -1.61173542        1 
C       3.13358485      -0.17114498      -0.12475712        6 
H       3.83405159       0.38371622      -0.75655395        1 
H       3.59942742      -0.33348661       0.85298689        1 
H       2.94043980      -1.14045044      -0.58990015        1 
