32
Lattice="0.0 0.0 0.0 0.0 0.0 0.0 0.0 0.0 0.0" Properties=species:S:1:pos:R:3:Z:I:1 pbc="F F F"
C       0.19800482       0.97060603       0.39534678        6 
C       0.51779679      -0.55376245       0.65436826        6 
C      -1.18976408       1.33577432      -0.08725842        6 
C      -0.42706455      -1.52969211      -0.05471307        6 
O      -2.06248349       1.35997026       0.94190964        8 
O      -1.49519988       1.57570306      -1.23568071        8 
O      -1.70619980      -1.31227300       0.32800997        8 
O      -0.13046634      -2.40291180      -0.83788378        8 
C      -2.68751000      -2.14532142      -0.31315952        6 
C      -3.43103910       1.58101832       0.57450493        6 
C       1.34858006       1.36021155      -0.58017624        6 
C       2.55270770       1.76493978       0.28169379        6 
C       2.85312710       0.39567969       0.95275973        6 
C       1.98064072      -0.59449053       0.10489556        6 
O       1.79299824       0.11560842      -1.13503515        8 
H       0.31764743       1.49287163       1.35015094        1 
H       0.45147049      -0.77294605       1.72559743        1 
H      -2.48969493      -3.20156447      -0.11123422        1 
H      -3.77618936       0.78460859      -0.09159955        1 
H       3.37915149       2.08293918      -0.36004693        1 
H       2.33562506       2.56764034       0.99356095        1 
H       3.90994410       0.12644017       0.87980657        1 
H       2.57973531       0.37306066       2.01340793        1 
H      -3.64565700      -1.84494183       0.11257729        1 
H      -2.67579666      -1.98022109      -1.39390737        1 
H      -3.54897091       2.54222825       0.06612649        1 
H      -3.99288328       1.56846449       1.50930294        1 
H       1.04772641       2.03436100      -1.38099076        1 
C       2.64975672      -1.93735603      -0.11619130        6 
H       3.65888842      -1.77280851      -0.50747584        1 
H       2.73495113      -2.47168353       0.83703159        1 
H       2.08660030      -2.55139324      -0.81495096        1 
