32
Lattice="0.0 0.0 0.0 0.0 0.0 0.0 0.0 0.0 0.0" Properties=species:S:1:pos:R:3:Z:I:1 pbc="F F F"
C       0.31066832       0.82109100       0.79540193        6 
C       0.55543815      -0.73366004       0.63189057        6 
C      -1.10017571       1.31492416       0.54066710        6 
C      -0.61788963      -1.46753270      -0.01350043        6 
O      -1.35088134       1.44175609      -0.78254765        8 
O      -1.88919416       1.62601642       1.40459259        8 
O      -1.72783827      -1.27765581       0.73674993        8 
O      -0.61850534      -2.13700467      -1.02106010        8 
C      -2.93620350      -1.85688402       0.21904392        6 
C      -2.67341674       1.89343189      -1.11365452        6 
C       1.40050220       1.38918346      -0.16573244        6 
C       2.73877612       1.40812804       0.59098127        6 
C       2.99773847      -0.11816216       0.71532753        6 
C       1.87799832      -0.72242115      -0.19591754        6 
O       1.60597317       0.34752485      -1.12393514        8 
H       0.51024949       1.10735592       1.83050931        1 
H       0.69133902      -1.18765238       1.61928384        1 
H      -2.85904944      -2.94753392       0.19162789        1 
H      -2.86096636       2.88164563      -0.68444004        1 
H       3.50236117       1.88936183      -0.02650710        1 
H       2.68997373       1.93147230       1.55076524        1 
H       3.98352664      -0.39556160       0.33270290        1 
H       2.92844745      -0.48097325       1.74586487        1 
H      -3.72459746      -1.54121693       0.90269066        1 
H      -3.12946622      -1.49129123      -0.79345585        1 
H      -3.42185002       1.19493029      -0.72794563        1 
H      -2.70675747       1.93068066      -2.20283258        1 
H       1.11802218       2.30851231      -0.67766978        1 
C       2.30289692      -1.98192171      -0.92445925        6 
H       3.24513050      -1.79078768      -1.44813353        1 
H       2.46762997      -2.79318262      -0.20622042        1 
H       1.54736520      -2.29865963      -1.64032324        1 
