32
Lattice="0.0 0.0 0.0 0.0 0.0 0.0 0.0 0.0 0.0" Properties=species:S:1:pos:R:3:Z:I:1 pbc="F F F"
C       0.03143345       1.02681059       0.52300035        6 
C       0.63751895      -0.41519379       0.68811336        6 
C      -1.26999413       1.13075205      -0.25396450        6 
C      -0.22360874      -1.62954729       0.37012515        6 
O      -2.29553084       1.44977080       0.57070719        8 
O      -1.38765425       1.00918672      -1.45209730        8 
O      -1.54219846      -1.35260907       0.35325183        8 
O       0.21268374      -2.75317074       0.23923222        8 
C      -2.40817070      -2.47218517       0.10064790        6 
C      -3.57889635       1.51854692      -0.06711129        6 
C       1.17109631       1.71434084      -0.28003059        6 
C       2.38313553       1.96154172       0.64493406        6 
C       2.97416219       0.52588918       0.73818697        6 
C       1.97871727      -0.28689591      -0.13998209        6 
O       1.62191676       0.67421254      -1.14559473        8 
H      -0.12295457       1.48942295       1.50004520        1 
H       0.88987194      -0.56940596       1.74411849        1 
H      -2.26911996      -3.24293363       0.86352192        1 
H      -3.82657683       0.55586651      -0.52491247        1 
H       3.08589998       2.65207833       0.17065967        1 
H       2.09783524       2.38291453       1.61389543        1 
H       3.97080727       0.47815394       0.29016099        1 
H       3.04828266       0.14468147       1.76148915        1 
H      -3.42084624      -2.06962521       0.13645761        1 
H      -2.19754817      -2.90041597      -0.88275612        1 
H      -3.58789108       2.28817952      -0.84453977        1 
H      -4.28979720       1.76235595       0.72360354        1 
H       0.84291004       2.56738569      -0.87419341        1 
C       2.56702482      -1.51842537      -0.79546162        6 
H       3.47233569      -1.22602853      -1.33719037        1 
H       2.81993384      -2.27551562      -0.04985636        1 
H       1.86276509      -1.96334247      -1.49998350        1 
