32
Lattice="0.0 0.0 0.0 0.0 0.0 0.0 0.0 0.0 0.0" Properties=species:S:1:pos:R:3:Z:I:1 pbc="F F F"
C      -0.10286102       0.83096199       0.57649237        6 
C       0.69268912      -0.51918185       0.63553490        6 
C      -1.48268939       0.80001636      -0.04667022        6 
C      -0.06520557      -1.69755736       0.03257624        6 
O      -2.18520236       1.88243761       0.36582529        8 
O      -1.92129809      -0.01198901      -0.83075753        8 
O      -0.98294930      -2.12540592       0.93450323        8 
O       0.11744958      -2.23097795      -1.03565335        8 
C      -1.89231265      -3.12093351       0.43695504        6 
C      -3.49508078       2.01428750      -0.21343015        6 
C       0.86603708       1.70996097      -0.28924646        6 
C       2.01464283       2.20328195       0.60936651        6 
C       2.78596924       0.87194582       0.82298277        6 
C       2.01068107      -0.11569468      -0.10406803        6 
O       1.50577126       0.76016787      -1.13555502        8 
H      -0.21528072       1.26626778       1.57186555        1 
H       0.88318062      -0.77972527       1.68049552        1 
H      -1.35099413      -4.01534305       0.11608106        1 
H      -4.11220236       1.14611392       0.03487971        1 
H       2.62223274       2.93139191       0.06456253        1 
H       1.66742117       2.67187007       1.53511526        1 
H       3.82452710       0.95323258       0.49030804        1 
H       2.79691399       0.54060683       1.86621461        1 
H      -2.55923244      -3.35297766       1.26862705        1 
H      -2.45232336      -2.71457857      -0.40962893        1 
H      -3.42728057       2.09839086      -1.30174454        1 
H      -3.91690844       2.92252263       0.21830459        1 
H       0.36805652       2.47302637      -0.88939276        1 
C       2.87048580      -1.21309822      -0.69555873        6 
H       3.75243550      -0.76835202      -1.16793066        1 
H       3.21011322      -1.89032452       0.09652031        1 
H       2.31401935      -1.78783480      -1.43419761        1 
