32
Lattice="0.0 0.0 0.0 0.0 0.0 0.0 0.0 0.0 0.0" Properties=species:S:1:pos:R:3:Z:I:1 pbc="F F F"
C       0.22110467       1.14607416       0.61178412        6 
C       0.54804970      -0.38448264       0.82957141        6 
C      -1.24342479       1.49082271       0.42158054        6 
C      -0.67530681      -1.26063372       0.55511964        6 
O      -1.64480547       1.24288632      -0.84680422        8 
O      -1.94626375       1.99465272       1.26684716        8 
O      -0.45588619      -2.31653331      -0.24526026        8 
O      -1.75296743      -1.04714968       1.07125994        8 
C      -1.60554326      -3.14561814      -0.49394069        6 
C      -3.05047834       1.42498344      -1.08144209        6 
C       1.16027420       1.48586508      -0.58777521        6 
C       2.55104530       1.79791904      -0.01509630        6 
C       2.92584854       0.39536810       0.53546697        6 
C       1.80914178      -0.51745547      -0.08505399        6 
O       1.37895559       0.23085860      -1.23988995        8 
H       0.51886848       1.70164328       1.50317948        1 
H       0.78812358      -0.56410564       1.88300943        1 
H      -2.39868860      -2.56062014      -0.96697132        1 
H      -3.35054617       2.45360096      -0.86280729        1 
H       3.22310433       2.09789558      -0.82403726        1 
H       2.54631879       2.58563681       0.74476277        1 
H       3.91399609       0.07394118       0.19607257        1 
H       2.92450997       0.35538345       1.62971420        1 
H      -1.25526610      -3.93320963      -1.16171537        1 
H      -1.98439252      -3.56746447       0.44078730        1 
H      -3.62283385       0.74225398      -0.44671904        1 
H      -3.20511981       1.19453332      -2.13642651        1 
H       0.74982322       2.20238817      -1.29835954        1 
C       2.32575608      -1.88360749      -0.49646962        6 
H       3.26332622      -1.75921507      -1.04792741        1 
H       2.52521496      -2.50081125       0.38650191        1 
H       1.61056138      -2.40411297      -1.12926848        1 
