32
Lattice="0.0 0.0 0.0 0.0 0.0 0.0 0.0 0.0 0.0" Properties=species:S:1:pos:R:3:Z:I:1 pbc="F F F"
C      -0.15179875       1.03523563       0.58017047        6 
C       0.69705011      -0.26676989       0.76752652        6 
C      -1.45578337       0.94887444      -0.20083710        6 
C       0.08819167      -1.65136056       0.65145295        6 
O      -2.49184084       1.32662905       0.59348669        8 
O      -1.57946189       0.71028995      -1.37845018        8 
O      -1.05925092      -1.71234101      -0.04169641        8 
O       0.62959651      -2.62783628       1.13125631        8 
C      -1.61734359      -3.02619097      -0.20984368        6 
C      -3.77531494       1.32531875      -0.05100949        6 
C       0.85691729       1.86581018      -0.27379102        6 
C       2.10219529       2.23367118       0.57207183        6 
C       2.90766375       0.90245220       0.51238836        6 
C       1.90748677      -0.01834979      -0.22995478        6 
O       1.34807844       0.88826272      -1.18923688        8 
H      -0.36471065       1.49677967       1.54622072        1 
H       1.09819596      -0.26910631       1.78411315        1 
H      -1.86574791      -3.46476432       0.76067653        1 
H      -4.01728056       0.32358098      -0.41851084        1 
H       2.65084760       3.05745323       0.10784301        1 
H       1.84023994       2.53700182       1.59089564        1 
H       3.80995593       1.01374521      -0.09647625        1 
H       3.20343057       0.51895477       1.49326989        1 
H      -2.51346860      -2.88333427      -0.81409669        1 
H      -0.90510220      -3.67842681      -0.72232854        1 
H      -3.78428549       2.01973603      -0.89623714        1 
H      -4.48950243       1.63756498       0.71216518        1 
H       0.40224635       2.68885455      -0.82603481        1 
C       2.48369539      -1.23116568      -0.92380604        6 
H       3.31155177      -0.92855578      -1.57238229        1 
H       2.84321089      -1.96071284      -0.19372657        1 
H       1.71816440      -1.70983098      -1.54284872        1 
