32
Lattice="0.0 0.0 0.0 0.0 0.0 0.0 0.0 0.0 0.0" Properties=species:S:1:pos:R:3:Z:I:1 pbc="F F F"
C       0.30003788       0.98649934       0.67843929        6 
C       0.48751896      -0.57922215       0.60712874        6 
C      -0.88871020       1.63578830      -0.02909729        6 
C      -0.71208252      -1.35421604       0.09375080        6 
O      -2.02649303       0.92529539       0.08707385        8 
O      -0.83473640       2.70945058      -0.58863793        8 
O      -1.52884178      -1.66578438       1.12681824        8 
O      -0.95177921      -1.65196138      -1.05565397        8 
C      -2.76560438      -2.28698315       0.75149504        6 
C      -3.17488595       1.48609489      -0.57409666        6 
C       1.61739410       1.45658145       0.01634711        6 
C       2.81733736       1.16259354       0.94279883        6 
C       2.98413302      -0.36814031       0.73142035        6 
C       1.81090234      -0.68370998      -0.23819517        6 
O       1.77000914       0.50776749      -1.04476954        8 
H       0.22588357       1.30573737       1.72476089        1 
H       0.66305126      -0.94620449       1.62178310        1 
H      -2.58587422      -3.24626043       0.25707434        1 
H      -2.99995050       1.54072799      -1.65175163        1 
H       3.69992886       1.71198548       0.60468303        1 
H       2.62468935       1.44308637       1.98350270        1 
H       3.93157197      -0.59845127       0.23533489        1 
H       2.93895488      -0.95021132       1.65707079        1 
H      -3.31763658      -2.43229113       1.68095939        1 
H      -3.32145455      -1.63813693       0.06855730        1 
H      -3.38586263       2.48842885      -0.19273430        1 
H      -3.99837275       0.80647865      -0.35318320        1 
H       1.55825007       2.46401167      -0.39082862        1 
C       2.01506747      -1.90982058      -1.10333736        6 
H       2.98116043      -1.83481175      -1.61248420        1 
H       2.02000396      -2.81483333      -0.48520543        1 
H       1.22164448      -1.99798868      -1.84479144        1 
