32
Lattice="0.0 0.0 0.0 0.0 0.0 0.0 0.0 0.0 0.0" Properties=species:S:1:pos:R:3:Z:I:1 pbc="F F F"
C      -0.46933968       0.82036714       0.57603905        6 
C       0.77892213      -0.07949774       0.85354522        6 
C      -1.78291290       0.13826250       0.23939330        6 
C       0.57979731      -1.57199703       0.62117570        6 
O      -2.72994965       1.08613966       0.03643694        8 
O      -2.02236858      -1.04776974       0.20164646        8 
O       0.47874671      -1.89017979      -0.68357203        8 
O       0.55859889      -2.38468809       1.52002154        8 
C       0.11864191      -3.25490829      -0.94551106        6 
C      -4.04221937       0.58513711      -0.27371909        6 
C       0.06133256       1.75333738      -0.56151762        6 
C       0.93849074       2.85007646       0.06956978        6 
C       2.16832666       2.00399821       0.50466706        6 
C       1.82938655       0.60324629      -0.09355325        6 
O       1.01899804       0.94038148      -1.23740161        8 
H      -0.69654023       1.42518506       1.46053228        1 
H       1.07816670      -0.00198383       1.90053049        1 
H      -0.85967641      -3.46453884      -0.50517005        1 
H      -4.41722242      -0.03859001       0.54256471        1 
H       1.21318197       3.58524167      -0.69209664        1 
H       0.44786944       3.37766288       0.89348357        1 
H       3.09428016       2.38550007       0.06470791        1 
H       2.30672899       1.96643272       1.58953103        1 
H       0.08012629      -3.34299300      -2.03200044        1 
H       0.86043010      -3.94145001      -0.52780719        1 
H      -4.01823097      -0.00990978      -1.19105605        1 
H      -4.66942222       1.46762181      -0.40400382        1 
H      -0.70547753       2.09441274      -1.25659756        1 
C       3.03535849      -0.21663951      -0.50172978        6 
H       3.67365100       0.37209693      -1.16817530        1 
H       3.62052252      -0.49300604       0.38234395        1 
H       2.72915250      -1.12512507      -1.02205649        1 
