32
Lattice="0.0 0.0 0.0 0.0 0.0 0.0 0.0 0.0 0.0" Properties=species:S:1:pos:R:3:Z:I:1 pbc="F F F"
C       0.02596799       1.01264179       0.85700680        6 
C       0.68810819      -0.41750357       0.77629564        6 
C      -1.39872088       1.03688604       0.29904447        6 
C      -0.33066211      -1.54728742       0.81223137        6 
O      -1.55017426       1.88214890      -0.73849648        8 
O      -2.31022291       0.37268872       0.74557750        8 
O      -0.59411816      -2.08617251      -0.39601811        8 
O      -0.80295360      -1.96089762       1.84653258        8 
C      -1.61943582      -3.09542184      -0.39591986        6 
C      -2.86898834       1.91426702      -1.30956271        6 
C       1.02722491       1.80407932      -0.01240012        6 
C       2.41821999       1.84656167       0.66760523        6 
C       2.97438472       0.44121370       0.30289441        6 
C       1.74007405      -0.21052882      -0.37762628        6 
O       1.21240784       0.90795061      -1.11796713        8 
H      -0.03740087       1.35103993       1.89513155        1 
H       1.22577450      -0.57089125       1.71587548        1 
H      -2.55881599      -2.67020033      -0.03257240        1 
H      -3.60380634       2.23367030      -0.56522057        1 
H       3.03025154       2.64635441       0.24260819        1 
H       2.34685197       2.01676805       1.74699332        1 
H       3.78577733       0.51653554      -0.42707176        1 
H       3.34064855      -0.12742114       1.16292416        1 
H      -1.71327883      -3.41674600      -1.43405384        1 
H      -1.33297569      -3.93361827       0.24504518        1 
H      -3.14641605       0.92233765      -1.67683981        1 
H      -2.81331325       2.62828340      -2.13167582        1 
H       0.65293799       2.75935714      -0.37505374        1 
C       2.05556707      -1.36109242      -1.30894304        6 
H       2.84624118      -1.05857356      -2.00324229        1 
H       2.40487731      -2.22954229      -0.74025991        1 
H       1.17277515      -1.65402073      -1.87601689        1 
