32
Lattice="0.0 0.0 0.0 0.0 0.0 0.0 0.0 0.0 0.0" Properties=species:S:1:pos:R:3:Z:I:1 pbc="F F F"
C      -0.33159353       0.86291383      -0.95985009        6 
C      -0.45884802      -0.67236778      -0.59994893        6 
C       1.00478025       1.44311259      -0.52367828        6 
C       0.82360382      -1.23975267      -0.02195060        6 
O       0.97985495       1.94006246       0.72015762        8 
O       2.00139550       1.38895538      -1.21677937        8 
O       1.41749930      -2.06554926      -0.90863698        8 
O       1.28886572      -0.98565557       1.06966194        8 
C       2.70372948      -2.56774815      -0.50565405        6 
C       2.26206492       2.28701218       1.26769001        6 
C      -1.56697665       1.42206966      -0.21019341        6 
C      -2.85688948       0.98859925      -0.94495812        6 
C      -2.95989222      -0.50066335      -0.50308116        6 
C      -1.68906546      -0.65344037       0.37808667        6 
O      -1.59680938       0.64154099       0.98830717        8 
H      -0.38587924       1.00232186      -2.04145911        1 
H      -0.68937172      -1.24175684      -1.50195827        1 
H       2.61921905      -3.14397737       0.42007894        1 
H       2.77087021       3.02022380       0.63598049        1 
H      -3.71012756       1.57145997      -0.58809597        1 
H      -2.78880096       1.11729396      -2.02979376        1 
H      -3.84839899      -0.67185221       0.11187838        1 
H      -2.98648780      -1.20613405      -1.33921049        1 
H       3.04062647      -3.20165876      -1.32634861        1 
H       3.39668593      -1.73651223      -0.34924533        1 
H       2.87504712       1.38559116       1.34967828        1 
H       2.05465908       2.70037960       2.25487850        1 
H      -1.49726707       2.47936234       0.04436798        1 
C      -1.74878234      -1.73841633       1.43162692        6 
H      -2.63363245      -1.59039373       2.05826788        1 
H      -1.81885282      -2.72525057       0.96016311        1 
H      -0.85850132      -1.70676484       2.06211500        1 
