32
Lattice="0.0 0.0 0.0 0.0 0.0 0.0 0.0 0.0 0.0" Properties=species:S:1:pos:R:3:Z:I:1 pbc="F F F"
C       0.33990997       1.11789768       0.61780433        6 
C       0.42207945      -0.44773420       0.66210554        6 
C      -0.93502654       1.70464573       0.03302889        6 
C      -0.73374378      -1.15347828      -0.01691929        6 
O      -2.02374406       1.14148463       0.60386335        8 
O      -0.98775408       2.58657498      -0.79318130        8 
O      -1.28319526      -2.07630957       0.80472692        8 
O      -1.10993660      -0.96480821      -1.15395810        8 
C      -2.37167020      -2.82231709       0.23531796        6 
C      -3.28481776       1.51076191       0.02025357        6 
C       1.59794871       1.47546189      -0.21090676        6 
C       2.85336645       1.32561736       0.67196887        6 
C       2.93568338      -0.22342776       0.79403818        6 
C       1.76605923      -0.67760666      -0.12723773        6 
O       1.71603899       0.36642441      -1.10897100        8 
H       0.40535583       1.51019477       1.63950582        1 
H       0.49359888      -0.81616222       1.68629890        1 
H      -2.03851548      -3.37679470      -0.64672378        1 
H      -3.32617870       1.16191304      -1.01547093        1 
H       3.72458450       1.72724642       0.14759992        1 
H       2.76817649       1.84013365       1.63435408        1 
H       3.88343225      -0.60693887       0.40485812        1 
H       2.82553821      -0.58569389       1.82094563        1 
H      -2.70135351      -3.50615574       1.01833315        1 
H      -3.18344512      -2.15075268      -0.05845063        1 
H      -3.42175120       2.59482524       0.04451351        1 
H      -4.04386204       1.01161178       0.62405508        1 
H       1.50115666       2.40223300      -0.77394729        1 
C       1.94154234      -2.02769960      -0.79027399        6 
H       2.90237569      -2.06146135      -1.31269914        1 
H       1.92331251      -2.82795595      -0.04214464        1 
H       1.14502490      -2.20155184      -1.51776896        1 
