32
Lattice="0.0 0.0 0.0 0.0 0.0 0.0 0.0 0.0 0.0" Properties=species:S:1:pos:R:3:Z:I:1 pbc="F F F"
C       0.18183236       1.15903125       0.46430032        6 
C       0.54345944      -0.30726876       0.86681218        6 
C      -1.23967740       1.49392357       0.04868532        6 
C      -0.47419511      -1.38492596       0.54057935        6 
O      -2.15175928       0.70560253       0.65204893        8 
O      -1.52900554       2.40134727      -0.70073668        8 
O      -0.86766560      -1.34960753      -0.75083159        8 
O      -0.84224821      -2.22816245       1.32973631        8 
C      -1.83792399      -2.34015782      -1.11869459        6 
C      -3.52274665       0.96636276       0.30796181        6 
C       1.24649681       1.47246829      -0.62272521        6 
C       2.57727860       1.81472949       0.07418012        6 
C       2.96507291       0.41655775       0.63899483        6 
C       1.86173547      -0.49634649       0.02460773        6 
O       1.52846845       0.19052382      -1.19344614        8 
H       0.34652568       1.80522019       1.33703299        1 
H       0.73262399      -0.40201050       1.93707692        1 
H      -2.75130734      -2.21715552      -0.52849717        1 
H      -3.67658549       0.82250406      -0.76530791        1 
H       3.30501286       2.15727609      -0.66649196        1 
H       2.47962011       2.58897250       0.84139521        1 
H       3.95071920       0.09841581       0.28693374        1 
H       2.97388751       0.37730558       1.73287327        1 
H      -2.03807338      -2.17486667      -2.17788088        1 
H      -1.44542867      -3.34746497      -0.95234015        1 
H      -3.79873133       1.99104166       0.57165477        1 
H      -4.10808690       0.24781079       0.88230493        1 
H       0.90250546       2.16313712      -1.39132094        1 
C       2.28232265      -1.92277302      -0.26012139        6 
H       3.19331264      -1.92689180      -0.86629481        1 
H       2.47942628      -2.45718102       0.67482838        1 
H       1.50105888      -2.45339424      -0.81046969        1 
