32
Lattice="0.0 0.0 0.0 0.0 0.0 0.0 0.0 0.0 0.0" Properties=species:S:1:pos:R:3:Z:I:1 pbc="F F F"
C      -0.87973491       0.60982828       0.92535484        6 
C       0.59437012       0.19847103       0.64212339        6 
C      -1.99680513      -0.28924303       0.41114015        6 
C       0.90046593      -1.27121107       0.41795840        6 
O      -1.86710553      -0.60722830      -0.88555047        8 
O      -2.92454928      -0.64569362       1.10855513        8 
O       2.21972400      -1.48431283       0.66305482        8 
O       0.14087545      -2.16724139       0.12608358        8 
C       2.66141636      -2.84032000       0.48182079        6 
C      -2.82105163      -1.55624017      -1.38120271        6 
C      -0.89746520       1.96339183       0.14920771        6 
C       0.07305217       2.97866219       0.81082461        6 
C       1.44002554       2.51684966       0.22234592        6 
C       1.01998263       1.21478103      -0.50114774        6 
O      -0.23462212       1.61758815      -1.06836770        8 
H      -1.06824711       0.73822886       1.99240950        1 
H       1.18523805       0.44747046       1.52829713        1 
H       2.48341012      -3.16907996      -0.54605384        1 
H      -3.84332189      -1.19576511      -1.23674571        1 
H      -0.17172759       4.00028568       0.50861527        1 
H       0.03621584       2.93408560       1.90400936        1 
H       1.81343113       3.23246387      -0.51648003        1 
H       2.21780574       2.36380638       0.97634166        1 
H       3.72900336      -2.83300837       0.70423444        1 
H       2.12942429      -3.51056084       1.16290352        1 
H      -2.69631720      -2.51102618      -0.86251690        1 
H      -2.59739565      -1.66663437      -2.44300123        1 
H      -1.89662170       2.34352403      -0.06899132        1 
C       1.94178477       0.69243353      -1.57887389        6 
H       2.11375421       1.47247750      -2.32664393        1 
H       2.90166900       0.38775217      -1.15280091        1 
H       1.48763939      -0.17068426      -2.07656496        1 
