32
Lattice="0.0 0.0 0.0 0.0 0.0 0.0 0.0 0.0 0.0" Properties=species:S:1:pos:R:3:Z:I:1 pbc="F F F"
C      -0.15512515       0.84647769       0.54260982        6 
C       0.69484454      -0.46575147       0.64324030        6 
C      -1.56245709       0.73396919      -0.00525136        6 
C       0.03386315      -1.67579964      -0.01007292        6 
O      -2.27829817       1.81819071       0.38017319        8 
O      -2.02186382      -0.14625340      -0.69832740        8 
O      -0.75540171      -2.29192607       0.90334125        8 
O       0.20099244      -2.08892408      -1.13290176        8 
C      -1.56200703      -3.35672341       0.37326052        6 
C      -3.62488757       1.86910229      -0.12275793        6 
C       0.76017950       1.73529617      -0.37227485        6 
C       1.86225166       2.35102128       0.50857283        6 
C       2.68879292       1.07575355       0.83464723        6 
C       2.00878398      -0.00225503      -0.06900324        6 
O       1.47720520       0.78695108      -1.15436410        8 
H      -0.25103336       1.31400900       1.52559187        1 
H       0.86429988      -0.71845840       1.69289472        1 
H      -0.93290514      -4.15969261      -0.02165837        1 
H      -4.19694206       1.00561517       0.22855777        1 
H       2.44826456       3.06329175      -0.07915799        1 
H       1.47486229       2.86915907       1.39096474        1 
H       3.73786506       1.19335599       0.54935768        1 
H       2.66175906       0.80304290       1.89434973        1 
H      -2.16220591      -3.71621701       1.21049102        1 
H      -2.20036154      -2.97265510      -0.42689152        1 
H      -3.62720329       1.87200154      -1.21639602        1 
H      -4.04847643       2.79555506       0.26638285        1 
H       0.22080669       2.42823118      -1.01969292        1 
C       2.95279584      -1.06914976      -0.58401436        6 
H       3.82302628      -0.59429948      -1.04854929        1 
H       3.30424755      -1.69189421       0.24681649        1 
H       2.45555834      -1.70311028      -1.31714467        1 
