32
Lattice="0.0 0.0 0.0 0.0 0.0 0.0 0.0 0.0 0.0" Properties=species:S:1:pos:R:3:Z:I:1 pbc="F F F"
C       0.01499362       1.12975156       0.37240169        6 
C       0.59932673      -0.24956484       0.88327838        6 
C      -1.37812883       1.06290937      -0.22447828        6 
C      -0.35031036      -1.42120295       0.69329897        6 
O      -2.29813691       1.46839067       0.68315833        8 
O      -1.65730007       0.73469072      -1.35559645        8 
O      -0.48338720      -1.78014828      -0.59472649        8 
O      -0.95761361      -1.94471395       1.60519603        8 
C      -1.48050735      -2.77727977      -0.86438437        6 
C      -3.66325203       1.41062642       0.23635175        6 
C       1.08716589       1.52215871      -0.68747351        6 
C       2.32171434       2.07997415       0.04887840        6 
C       2.89327405       0.77264683       0.66823106        6 
C       1.94005160      -0.30889956       0.07507547        6 
O       1.55870237       0.26847125      -1.18238729        8 
H      -0.01778092       1.83933583       1.20167643        1 
H       0.77824051      -0.20385064       1.95887046        1 
H      -2.46947203      -2.40315165      -0.58440643        1 
H      -3.93500298       0.38511386      -0.03068732        1 
H       3.01911047       2.51539450      -0.67209848        1 
H       2.07496876       2.84635489       0.79007360        1 
H       3.91803190       0.58568445       0.33469719        1 
H       2.89362992       0.77453154       1.76266957        1 
H      -1.43093568      -2.95272402      -1.93887047        1 
H      -1.27397880      -3.69497640      -0.30663656        1 
H      -3.80974755       2.05305056      -0.63668683        1 
H      -4.26292253       1.75869299       1.07791658        1 
H       0.70257170       2.11886891      -1.51435907        1 
C       2.56706412      -1.67376959      -0.11862143        6 
H       3.47974557      -1.57833782      -0.71498832        1 
H       2.83098237      -2.11054747       0.85077850        1 
H       1.88202723      -2.34694252      -0.63706656        1 
