32
Lattice="0.0 0.0 0.0 0.0 0.0 0.0 0.0 0.0 0.0" Properties=species:S:1:pos:R:3:Z:I:1 pbc="F F F"
C      -0.18503203       0.79548646       0.65683759        6 
C       0.73008500      -0.47886748       0.59716065        6 
C      -1.58050163       0.67981107       0.06181549        6 
C       0.05797453      -1.70521104      -0.00641002        6 
O      -2.14767382       1.90670077      -0.00478037        8 
O      -2.16128722      -0.32972215      -0.26887882        8 
O      -0.57352180      -2.39335268       0.97215464        8 
O       0.08739675      -2.05754038      -1.16314288        8 
C      -1.40447826      -3.46871388       0.50740553        6 
C      -3.49066738       1.93288300      -0.52017738        6 
C       0.69959949       1.83147880      -0.10306284        6 
C       1.86419362       2.27475961       0.80514323        6 
C       2.75696865       1.00442020       0.76407782        6 
C       1.96082810       0.07638541      -0.20041309        6 
O       1.34235604       1.02796438      -1.09239203        8 
H      -0.34141900       1.11428780       1.69314069        1 
H       1.02148336      -0.75700252       1.61300384        1 
H      -0.81631845      -4.19924896      -0.05500217        1 
H      -4.15137343       1.32187911       0.10131418        1 
H       2.37401505       3.13509804       0.36288941        1 
H       1.53686019       2.55402472       1.81163191        1 
H       3.73875624       1.22151936       0.33377404        1 
H       2.91600856       0.55065836       1.74712451        1 
H      -1.82691648      -3.92373915       1.40456786        1 
H      -2.19462997      -3.06834176      -0.13356574        1 
H      -3.51458467       1.55046906      -1.54441489        1 
H      -3.79398462       2.97991034      -0.49286183        1 
H       0.13591804       2.63304309      -0.57769141        1 
C       2.81777647      -0.90762655      -0.97022076        6 
H       3.64449459      -0.37316311      -1.44900042        1 
H       3.24004819      -1.65409016      -0.28749504        1 
H       2.23030702      -1.42175998      -1.72997410        1 
