32
Lattice="0.0 0.0 0.0 0.0 0.0 0.0 0.0 0.0 0.0" Properties=species:S:1:pos:R:3:Z:I:1 pbc="F F F"
C       0.32445497       0.89913946       0.79912559        6 
C       0.46905558      -0.65165201       0.60039414        6 
C      -0.84639898       1.64391221       0.17792465        6 
C      -0.80320783      -1.37243250       0.18110999        6 
O      -1.56860761       0.91439562      -0.68667822        8 
O      -1.06597085       2.81247091       0.41980401        8 
O      -1.67645198      -1.33970972       1.22075806        8 
O      -1.03353409      -1.95773185      -0.85128833        8 
C      -2.95576881      -1.93324253       0.95387387        6 
C      -2.64411268       1.59951043      -1.34913494        6 
C       1.61709623       1.38894064       0.08251271        6 
C       2.86677132       0.98316870       0.89403966        6 
C       2.96932811      -0.52630139       0.53798380        6 
C       1.71578091      -0.72937757      -0.35789579        6 
O       1.65942513       0.53273168      -1.06027364        8 
H       0.32009766       1.17898011       1.85506929        1 
H       0.72131162      -1.08933517       1.57149992        1 
H      -2.84551527      -2.98821570       0.68771579        1 
H      -2.26250372       2.46491592      -1.89690605        1 
H       3.74074806       1.53873069       0.54357450        1 
H       2.75110971       1.17617911       1.96511538        1 
H       3.86945030      -0.73499945      -0.04748374        1 
H       2.97595248      -1.18428199       1.41230514        1 
H      -3.52938401      -1.82631973       1.87549326        1 
H      -3.45161898      -1.41138247       0.12971391        1 
H      -3.38685204       1.93782198      -0.62083971        1 
H      -3.07428661       0.86646126      -2.03179141        1 
H       1.57318785       2.43366122      -0.22673449        1 
C       1.82242074      -1.87390234      -1.34338196        6 
H       2.76215941      -1.78158556      -1.89754078        1 
H       1.82162239      -2.83318684      -0.81503498        1 
H       0.98456621      -1.86970429      -2.03845831        1 
