32
Lattice="0.0 0.0 0.0 0.0 0.0 0.0 0.0 0.0 0.0" Properties=species:S:1:pos:R:3:Z:I:1 pbc="F F F"
C       0.38345922       1.13181891       0.72259498        6 
C       0.49485720      -0.43450362       0.78302742        6 
C      -0.94833023       1.69578453       0.26404960        6 
C      -0.87208080      -1.10482195       0.70769727        6 
O      -1.37118685       1.12258251      -0.88469328        8 
O      -1.52998778       2.60146464       0.81846830        8 
O      -0.90589370      -2.23447732      -0.01947200        8 
O      -1.82897760      -0.69393821       1.33129343        8 
C      -2.17970939      -2.90389102      -0.04663400        6 
C      -2.67173785       1.53833109      -1.32851147        6 
C       1.50993621       1.45611899      -0.30305284        6 
C       2.88402498       1.26825174       0.37381410        6 
C       2.97103049      -0.28330586       0.41676421        6 
C       1.63498984      -0.70560918      -0.26919343        6 
O       1.44344722       0.36225782      -1.21714092        8 
H       0.57527567       1.59074851       1.69308156        1 
H       0.85118659      -0.71928065       1.78006246        1 
H      -2.94376770      -2.24843035      -0.47326968        1 
H      -2.70137414       2.61985488      -1.48529897        1 
H       3.67308920       1.69374936      -0.25241038        1 
H       2.94008729       1.74098622       1.35913074        1 
H       3.81502409      -0.64779731      -0.17550673        1 
H       3.07459725      -0.68682087       1.42880700        1 
H      -2.03180142      -3.78412104      -0.67306411        1 
H      -2.48344415      -3.19193766       0.96332337        1 
H      -3.42459514       1.26348585      -0.58371752        1 
H      -2.84454316       1.00802285      -2.26595871        1 
H       1.37292802       2.39613749      -0.83995804        1 
C       1.70684257      -2.02922033      -1.00326449        6 
H       2.60491327      -2.04077087      -1.62922175        1 
H       1.75836510      -2.86486404      -0.29905254        1 
H       0.83197330      -2.16893164      -1.63726115        1 
