32
Lattice="0.0 0.0 0.0 0.0 0.0 0.0 0.0 0.0 0.0" Properties=species:S:1:pos:R:3:Z:I:1 pbc="F F F"
C      -0.82605793      -0.50715149      -0.70138032        6 
C       0.65236656      -0.03670120      -0.59596479        6 
C      -1.86764829       0.20420471       0.15216867        6 
C       0.93959336       1.40956024      -0.23771484        6 
O      -3.00445849       0.37255950      -0.57767814        8 
O      -1.79120643       0.46442009       1.32703415        8 
O       2.09768899       1.78583731      -0.84771424        8 
O       0.29189200       2.16173679       0.45129223        8 
C       2.52420969       3.12683610      -0.55747711        6 
C      -4.10654268       0.93674991       0.15136109        6 
C      -0.65820905      -1.93961250      -0.09485848        6 
C       0.26058212      -2.80882310      -0.99533335        6 
C       1.67046709      -2.32261752      -0.54493097        6 
C       1.28748057      -1.13080119       0.36388533        6 
O       0.14912578      -1.67100807       1.05016732        8 
H      -1.17011639      -0.52881571      -1.73701193        1 
H       1.10811028      -0.16365807      -1.58095335        1 
H       2.67599927       3.25833855       0.51772390        1 
H      -3.85412435       1.93749170       0.51375031        1 
H       0.11266240      -3.87149551      -0.78606937        1 
H       0.06836722      -2.64719234      -2.06099165        1 
H       2.17692358      -3.08376599       0.05632929        1 
H       2.32830875      -2.04406368      -1.37378747        1 
H       3.46171901       3.26091568      -1.09855758        1 
H       1.77616052       3.84900679      -0.89697979        1 
H      -4.36320154       0.30872812       1.00965730        1 
H      -4.93610717       0.98117257      -0.55574325        1 
H      -1.59385837      -2.40910945       0.21224270        1 
C       2.32294239      -0.64487127       1.35080194        6 
H       2.65541922      -1.47435519       1.98209310        1 
H       3.18749519      -0.23110388       0.82254080        1 
H       1.89223479       0.13132575       1.99038118        1 
