32
Lattice="0.0 0.0 0.0 0.0 0.0 0.0 0.0 0.0 0.0" Properties=species:S:1:pos:R:3:Z:I:1 pbc="F F F"
C       0.04209531       0.98726615       0.26125367        6 
C       0.50232923      -0.41289241       0.76629506        6 
C      -1.40112055       1.39082594       0.05089281        6 
C      -0.15951434      -1.63622360       0.11018209        6 
O      -2.24916072       0.75900072       0.88194502        8 
O      -1.74334977       2.24598968      -0.73990117        8 
O      -1.40678325      -1.40493072      -0.33687819        8 
O       0.33077744      -2.74598024       0.09141391        8 
C      -2.06824873      -2.53509791      -0.92868147        6 
C      -3.63141543       1.11647991       0.72998648        6 
C       1.05162884       1.29688434      -0.88182856        6 
C       2.21824582       2.05522510      -0.23504071        6 
C       2.70427960       0.95268299       0.75074250        6 
C       1.98709118      -0.33301745       0.20632275        6 
O       1.66587178       0.02922928      -1.16028348        8 
H       0.28675243       1.66588219       1.09413849        1 
H       0.43228476      -0.52332225       1.85209822        1 
H      -2.14585006      -3.35354325      -0.20791198        1 
H      -3.97726355       0.86586441      -0.27729681        1 
H       2.98124335       2.28003594      -0.98537708        1 
H       1.91953269       2.98846890       0.25299819        1 
H       3.78878594       0.82433699       0.71607515        1 
H       2.43514870       1.16026870       1.79207963        1 
H      -3.05696249      -2.17433390      -1.21474507        1 
H      -1.51711454      -2.88627840      -1.80543657        1 
H      -3.77962710       2.18711739       0.89750705        1 
H      -4.16905961       0.53085941       1.47651177        1 
H       0.60684475       1.71812543      -1.78229560        1 
C       2.88589113      -1.55424023       0.24556255        6 
H       3.86215842      -1.28645301      -0.17165658        1 
H       3.02970749      -1.88209998       1.28059188        1 
H       2.47112961      -2.38494253      -0.31948236        1 
