32
Lattice="0.0 0.0 0.0 0.0 0.0 0.0 0.0 0.0 0.0" Properties=species:S:1:pos:R:3:Z:I:1 pbc="F F F"
C      -0.02062978       0.64650597      -0.96411932        6 
C      -0.44635268      -0.78280150      -0.50994639        6 
C       1.09045271       1.25141043      -0.08157952        6 
C       0.64446780      -1.77598522      -0.15341955        6 
O       0.88186434       2.56507792       0.15095634        8 
O       2.01956966       0.65018330       0.41160407        8 
O       1.68389869      -1.63605110      -0.99973008        8 
O       0.58863760      -2.62261986       0.71192544        8 
C       2.83448849      -2.43800083      -0.69710097        6 
C       1.82886545       3.18524419       1.03584931        6 
C      -1.35013346       1.37476232      -0.62410837        6 
C      -2.56705924       0.76469685      -1.36914682        6 
C      -2.90557484      -0.45731977      -0.46399882        6 
C      -1.65949780      -0.48799573       0.45129830        6 
O      -1.51991370       0.92532828       0.73165990        8 
H       0.28137930       0.68352775      -2.01444693        1 
H      -0.86096876      -1.25689119      -1.41199851        1 
H       2.57914776      -3.50137201      -0.68663887        1 
H       2.84248542       3.11109929       0.63220443        1 
H      -3.39163530       1.48111142      -1.41190517        1 
H      -2.32005591       0.48155699      -2.39799663        1 
H      -3.79360196      -0.26201638       0.14471267        1 
H      -3.06358191      -1.38815863      -1.01841639        1 
H       3.55698745      -2.22229987      -1.48507194        1 
H       3.23627387      -2.15044222       0.27819200        1 
H       1.80082267       2.70166995       2.01611475        1 
H       1.51786283       4.22780078       1.11063410        1 
H      -1.28981464       2.45962826      -0.64793202        1 
C      -1.78448703      -1.26235955       1.74263139        6 
H      -2.64463844      -0.88060373       2.30244484        1 
H      -1.92392769      -2.32691494       1.54245324        1 
H      -0.88267115      -1.15465052       2.34834546        1 
