32
Lattice="0.0 0.0 0.0 0.0 0.0 0.0 0.0 0.0 0.0" Properties=species:S:1:pos:R:3:Z:I:1 pbc="F F F"
C       0.27119451       1.10647025       0.53078279        6 
C       0.59072980      -0.39400227       0.86802177        6 
C      -1.14342926       1.61709077       0.32773820        6 
C      -0.53044799      -1.40658102       0.68006233        6 
O      -1.95178031       0.78733529      -0.35592900        8 
O      -1.49041597       2.71719105       0.70689701        8 
O      -0.82757777      -1.65736097      -0.60689993        8 
O      -1.10380190      -1.93168537       1.61277400        8 
C      -1.96119014      -2.50957691      -0.81390255        6 
C      -3.28327949       1.27842116      -0.58822565        6 
C       1.19629007       1.34099929      -0.72164704        6 
C       2.60738492       1.66552052      -0.20018475        6 
C       2.99135739       0.28320069       0.40132706        6 
C       1.81594575      -0.62497269      -0.08468051        6 
O       1.37211995       0.04262031      -1.28073572        8 
H       0.63345596       1.72599654       1.35341250        1 
H       0.87164261      -0.48638489       1.91898375        1 
H      -2.85276046      -2.06495911      -0.36183950        1 
H      -3.25422979       2.20955605      -1.16043819        1 
H       3.25804842       1.92525892      -1.04000121        1 
H       2.62825052       2.48660327       0.52228638        1 
H       3.94043280      -0.08277854      -0.00028497        1 
H       3.07519133       0.29680192       1.49257854        1 
H      -2.07485005      -2.58536285      -1.89591620        1 
H      -1.79602586      -3.49679616      -0.37266545        1 
H      -3.79512880       1.46047598       0.36071416        1 
H      -3.78665242       0.49340991      -1.15349319        1 
H       0.79017877       2.02046046      -1.47220170        1 
C       2.21273708      -2.05829011      -0.37242220        6 
H       3.05381120      -2.07362946      -1.07278621        1 
H       2.52510759      -2.55539155       0.55254207        1 
H       1.38484859      -2.61616790      -0.81320453        1 
