32
Lattice="0.0 0.0 0.0 0.0 0.0 0.0 0.0 0.0 0.0" Properties=species:S:1:pos:R:3:Z:I:1 pbc="F F F"
C      -0.41943016       0.88175330       0.47143368        6 
C       0.72609605      -0.10960604       0.88082174        6 
C      -1.75425506       0.30266646       0.04714575        6 
C       0.37096071      -1.57955250       0.68635361        6 
O      -2.74024034       1.17523510       0.36909902        8 
O      -1.96500911      -0.74224877      -0.52761490        8 
O       0.52219453      -2.00875612      -0.57572523        8 
O      -0.03154711      -2.27401654       1.59655374        8 
C      -0.01682893      -3.31160949      -0.84632582        6 
C      -4.06131033       0.77984647      -0.03974181        6 
C       0.26964421       1.67681667      -0.69538540        6 
C       1.16872499       2.75815082      -0.06938257        6 
C       2.27572946       1.86061273       0.55302342        6 
C       1.89950595       0.44594798       0.00609902        6 
O       1.21693454       0.75661151      -1.22622367        8 
H      -0.63168613       1.56199078       1.29877070        1 
H       0.93421558      -0.01101164       1.94835010        1 
H      -1.09924741      -3.29120140      -0.69720432        1 
H      -4.33389909      -0.17452648       0.41909883        1 
H       1.57614253       3.39665180      -0.85825927        1 
H       0.65078577       3.39376332       0.65501552        1 
H       3.27082728       2.14801943       0.20199481        1 
H       2.28868302       1.88834824       1.64716872        1 
H       0.22307945      -3.51409191      -1.89072536        1 
H       0.43073582      -4.06446563      -0.19155976        1 
H      -4.11289175       0.67566735      -1.12752504        1 
H      -4.72424528       1.57545578       0.30199173        1 
H      -0.40760503       2.01360424      -1.48180463        1 
C       3.08760384      -0.46184435      -0.23682389        6 
H       3.81970687       0.05118189      -0.86845510        1 
H       3.56954871      -0.71135410       0.71530527        1 
H       2.78123993      -1.38402027      -0.73099679        1 
