62
Lattice="0.0 0.0 0.0 0.0 0.0 0.0 0.0 0.0 0.0" Properties=species:S:1:pos:R:3:Z:I:1 pbc="F F F"
C       3.79044298      -0.37363370      -0.57850473        6 
C       5.30929984      -0.06728128      -0.37550933        6 
C       2.83554450       0.66517080      -0.03635979        6 
C       5.65393003       1.31913206       0.14214587        6 
O       1.69095874       0.65590644      -0.76254892        8 
O       2.99779733       1.36073464       0.93315739        8 
O       5.20045024       2.25814891      -0.71685064        8 
O       6.30185770       1.56327383       1.12600407        8 
C       5.37035151       3.62484288      -0.29799034        6 
C       0.61536484       1.48788509      -0.27830504        6 
C       3.65559356      -1.71421800       0.24889075        6 
C       4.39212876      -2.83007470      -0.54614387        6 
C       5.88329479      -2.51123530      -0.23733328        6 
C       5.73690918      -1.21108407       0.57628501        6 
O       4.54883318      -1.46209792       1.34085687        8 
H       3.54318165      -0.54248712      -1.62506272        1 
H       5.81735949      -0.15051950      -1.34052746        1 
C       2.27608776      -2.07574232       0.75379048        6 
H       4.10286422      -3.80982268      -0.16223801        1 
H       4.15359991      -2.80406351      -1.61135634        1 
H       6.33131193      -3.28924685       0.38239529        1 
H       6.49875121      -2.39289705      -1.13142267        1 
H       6.55520954      -0.95498701       1.24271239        1 
C      -4.73211031      -0.78643126       0.78189927        6 
C      -3.93028097       0.53799906       0.54302632        6 
C      -4.23866235      -2.00891494       0.02736399        6 
C      -2.85702777       0.44525059      -0.51835144        6 
O      -2.95272345      -2.26995044       0.35471097        8 
O      -4.89816816      -2.70102515      -0.70276288        8 
O      -1.73157144       1.08177510      -0.11321691        8 
O      -2.96490684      -0.08263230      -1.59622330        8 
C      -0.63315415       1.07915145      -1.04949896        6 
C      -2.33216085      -3.35666038      -0.35666383        6 
C      -6.16619742      -0.36034527       0.39012556        6 
C      -6.76238928       0.49584499       1.52488542        6 
C      -5.95407999       1.81404766       1.35043299        6 
C      -5.09819673       1.50000779       0.09095913        6 
O      -5.94435402       0.60672072      -0.64486321        8 
H      -4.67173945      -1.05211861       1.84099743        1 
H      -3.46713163       0.89770635       1.45973059        1 
H      -2.29418517      -3.12568871      -1.42243455        1 
H      -6.78200717      -1.17060173       0.01121103        1 
H      -7.82698566       0.65896653       1.35180493        1 
H      -6.64551110       0.03845641       2.50963878        1 
H      -6.61190551       2.66042635       1.14500025        1 
H      -5.34191695       2.06723200       2.21818808        1 
C      -4.70311273       2.69143313      -0.75186910        6 
H      -2.88813720      -4.28255890      -0.20433333        1 
H      -1.32889885      -3.43958773       0.05630308        1 
H       4.95795420       4.22936095      -1.10301729        1 
H       6.42659940       3.85255302      -0.14861758        1 
H       4.82492735       3.79523854       0.63138097        1 
H      -0.86687328       1.75273966      -1.87629303        1 
H      -0.50911466       0.07356805      -1.45286788        1 
H       0.88205476       2.53695183      -0.41774416        1 
H       0.47137966       1.30985037       0.78852060        1 
H       2.33160679      -2.99759602       1.33644672        1 
H       1.58958572      -2.23096584      -0.08198630        1 
H       1.87330813      -1.29137470       1.39732141        1 
H      -4.01204863       3.33542484      -0.20212499        1 
H      -5.59041232       3.27352131      -1.00895363        1 
H      -4.22579613       2.36743539      -1.67783647        1 
