62
Lattice="0.0 0.0 0.0 0.0 0.0 0.0 0.0 0.0 0.0" Properties=species:S:1:pos:R:3:Z:I:1 pbc="F F F"
C      -2.71874321       0.51336268       0.73231858        6 
C      -3.45746127       1.59894336      -0.11870424        6 
C      -2.36293567      -0.75843545      -0.00240342        6 
C      -3.59158743       1.32301224      -1.60673915        6 
O      -1.24763790      -1.30558738       0.53805263        8 
O      -2.97241899      -1.26646941      -0.90955894        8 
O      -2.36971886       1.25214635      -2.18209393        8 
O      -4.62431389       1.25913111      -2.22083339        8 
C      -2.35697551       0.90122279      -3.57726138        6 
C      -0.76590459      -2.51992767      -0.07322327        6 
C      -3.80685059       0.23349386       1.84380612        6 
C      -3.85245671       1.48005606       2.77079710        6 
C      -4.65494843       2.49403541       1.90552338        6 
C      -4.82348029       1.68964723       0.60321305        6 
O      -5.02054262       0.35379099       1.08927074        8 
H      -1.80505673       0.90156187       1.17953096        1 
H      -2.90270783       2.53835287      -0.04540395        1 
C      -3.73803482      -1.10439898       2.54478795        6 
H      -4.37933719       1.23462044       3.69465179        1 
H      -2.85389642       1.83150330       3.03740917        1 
H      -5.63127870       2.70359610       2.34447969        1 
H      -4.13781635       3.44415564       1.75659201        1 
H      -5.64890562       1.96921634      -0.04467017        1 
C       4.41762387       0.24305679      -0.30493404        6 
C       3.10733849      -0.43746331      -0.82015510        6 
C       4.78866327      -0.02854172       1.14326119        6 
C       2.26977886      -1.11522020       0.23902331        6 
O       4.96601369      -1.35478526       1.33291338        8 
O       4.97703013       0.80373723       1.99149532        8 
O       1.62274702      -2.18496760      -0.29887056        8 
O       2.13007621      -0.75045152       1.37743390        8 
C       0.60190230      -2.81674957       0.50504570        6 
C       5.21888593      -1.76806493       2.68800251        6 
C       4.13424430       1.73484305      -0.60038281        6 
C       4.32383429       1.98904237      -2.10848521        6 
C       3.07010559       1.26898887      -2.68280134        6 
C       2.33481905       0.81916461      -1.38886312        6 
O       2.71075885       1.83360982      -0.44689758        8 
H       5.26160750      -0.12197806      -0.89658425        1 
H       3.30305686      -1.15888978      -1.61122052        1 
H       4.36422481      -1.51209217       3.31612853        1 
H       4.62631148       2.42362331       0.07985009        1 
H       4.29470775       3.05964285      -2.31576890        1 
H       5.26753409       1.59357742      -2.49020220        1 
H       2.43551090       1.95611406      -3.24537021        1 
H       3.31258436       0.42708559      -3.33456662        1 
C       0.83108206       0.70942153      -1.49644303        6 
H       6.11600735      -1.28501489       3.07741297        1 
H       5.35322773      -2.84678663       2.64286074        1 
H      -1.31215444       0.93704189      -3.87809186        1 
H      -2.94832538       1.61013136      -4.15801301        1 
H      -2.76168790      -0.10367238      -3.70854436        1 
H       0.68055768      -2.48280416       1.53889077        1 
H       0.80457850      -3.88735051       0.44442314        1 
H      -0.72450533      -2.40059436      -1.15654723        1 
H      -1.46474294      -3.32940398       0.15705818        1 
H      -4.55537518      -1.18350640       3.26442769        1 
H      -2.79062871      -1.20829534       3.07831670        1 
H      -3.83303996      -1.92593687       1.83175516        1 
H       0.55422295      -0.07737465      -2.20229962        1 
H       0.41191923       1.65242970      -1.84952564        1 
H       0.37826556       0.48025035      -0.53150674        1 
