29
Lattice="0.0 0.0 0.0 0.0 0.0 0.0 0.0 0.0 0.0" Properties=species:S:1:pos:R:3:Z:I:1 pbc="F F F"
C      -0.78702341      -0.20141563      -0.86398399        6 
C       0.67752197      -0.58911795      -0.51121619        6 
C      -1.23061184       1.11853274      -0.21758778        6 
C       1.69743410       0.53517003      -0.50054214        6 
O      -2.57123628       1.13638157      -0.03838339        8 
O      -0.51016360       2.01250843       0.16286939        8 
O       2.60308219       0.38582385       0.49208568        8 
O       1.79674747       1.35625982      -1.38306851        8 
C       3.65180630       1.36953039       0.50145913        6 
C      -3.08240175       2.30334306       0.62740170        6 
C      -1.50710917      -1.35035733      -0.09628484        6 
C      -1.07320732      -2.75420576      -0.59617641        6 
C       0.27705730      -2.95435874       0.16214484        6 
C       0.47660582      -1.53118876       0.71487675        6 
O      -0.85149778      -1.22884152       1.18103372        8 
H      -0.98366912      -0.17718183      -1.93918565        1 
H       1.04554619      -1.19805534      -1.34789708        1 
H       3.22911676       2.37205299       0.60862078        1 
H      -2.84440499       3.20719342       0.05974141        1 
H      -2.57835164      -1.20853882       0.02316382        1 
H      -1.81272942      -3.50851412      -0.31521874        1 
H      -0.95950756      -2.78714026      -1.68491218        1 
H       0.16485103      -3.66270702       0.98753074        1 
H       1.09542870      -3.29377334      -0.48072540        1 
H       1.19461606      -1.40657368       1.52252893        1 
H       4.28011462       1.12103479       1.35769518        1 
H       4.22697361       1.32457939      -0.42774679        1 
H      -2.64921907       2.38799632       1.62781425        1 
H      -4.16161835       2.15699133       0.68511728        1 
