29
Lattice="0.0 0.0 0.0 0.0 0.0 0.0 0.0 0.0 0.0" Properties=species:S:1:pos:R:3:Z:I:1 pbc="F F F"
C       0.56579314      -0.76836312      -0.60581253        6 
C       0.54343978       0.81120315      -0.49798716        6 
C      -0.59611625      -1.44556501       0.10361267        6 
C      -0.71878071       1.34370918       0.14810526        6 
O      -1.66486943      -1.52705250      -0.72735465        8 
O      -0.58629183      -1.89363129       1.22539937        8 
O      -1.60882932       1.73684035      -0.79275658        8 
O      -0.93201802       1.40147889       1.33828019        8 
C      -2.88381922       2.16058486      -0.28262971        6 
C      -2.84429081      -2.10505045      -0.14108603        6 
C       1.90004899      -1.07103323       0.12227546        6 
C       3.09185172      -0.62601587      -0.75966439        6 
C       3.06173835       0.91916030      -0.54400830        6 
C       1.81615762       1.05771818       0.35896152        6 
O       1.89787104      -0.10792206       1.18110671        8 
H       0.55570965      -1.07814461      -1.65331042        1 
H       0.62553470       1.24993550      -1.49470330        1 
H      -2.76930464       3.02557807       0.37672246        1 
H      -3.14366044      -1.54210674       0.74766462        1 
H       1.95672423      -2.07375731       0.54406727        1 
H       4.02257001      -1.06502455      -0.39081795        1 
H       2.97326425      -0.91797523      -1.80831981        1 
H       3.94865880       1.26078634      -0.00384983        1 
H       2.98891150       1.49001747      -1.47495158        1 
H       1.76755046       1.94664712       0.98754336        1 
H      -3.47982688       2.41922885      -1.15847940        1 
H      -3.35687569       1.34996743       0.27977379        1 
H      -2.66098063      -3.14433593       0.14652449        1 
H      -3.61329707      -2.04976268      -0.91255903        1 
