29
Lattice="0.0 0.0 0.0 0.0 0.0 0.0 0.0 0.0 0.0" Properties=species:S:1:pos:R:3:Z:I:1 pbc="F F F"
C      -0.66381346       0.54539153      -0.84294391        6 
C      -0.48748438      -0.97162346      -0.42568526        6 
C       0.58625524       1.38947477      -0.68510440        6 
C       0.83972735      -1.28642426       0.24647812        6 
O       0.85596999       1.64921718       0.60837855        8 
O       1.26944835       1.77801109      -1.60863448        8 
O       1.77226470      -1.58242507      -0.68967652        8 
O       1.05281931      -1.31735806       1.43637304        8 
C       3.08378219      -1.86758782      -0.17542678        6 
C       2.06896043       2.37824272       0.85258886        6 
C      -1.85867566       0.95212737       0.07117536        6 
C      -3.16453204       0.38954645      -0.53456940        6 
C      -3.00550350      -1.12733464      -0.20444767        6 
C      -1.66602126      -1.12332196       0.56985817        6 
O      -1.68024092       0.14506906       1.23555874        8 
H      -0.92088221       0.61047843      -1.90200602        1 
H      -0.57904250      -1.61327498      -1.30519029        1 
H       3.05708215      -2.74647815       0.47524682        1 
H       2.02915344       3.36343432       0.37910189        1 
H      -1.87634956       2.00531123       0.35214375        1 
H      -4.02748816       0.81931165      -0.01883883        1 
H      -3.26818754       0.59642612      -1.60402215        1 
H      -3.81419689      -1.48294341       0.43944931        1 
H      -2.97770195      -1.76319734      -1.09508056        1 
H      -1.52790323      -1.91623324       1.30377850        1 
H       3.70879733      -2.05204717      -1.04948090        1 
H       3.46336569      -1.01675779       0.39767898        1 
H       2.92804731       1.83022528       0.45415213        1 
H       2.14007855       2.46981992       1.93626791        1 
