29
Lattice="0.0 0.0 0.0 0.0 0.0 0.0 0.0 0.0 0.0" Properties=species:S:1:pos:R:3:Z:I:1 pbc="F F F"
C       0.53028787       1.01347817       0.44447414        6 
C       0.64360855      -0.51782704       0.83572320        6 
C      -0.77245781       1.37604835      -0.25214009        6 
C      -0.65299221      -1.29159411       0.69204663        6 
O      -1.77488062       1.45313721       0.65206266        8 
O      -0.91642213       1.59257851      -1.43347658        8 
O      -0.86269872      -1.68895107      -0.58024257        8 
O      -1.41082369      -1.53260760       1.60615311        8 
C      -2.09547904      -2.38887508      -0.81285090        6 
C      -3.07796526       1.71062209       0.10301398        6 
C       1.72639779       1.13764204      -0.52815561        6 
C       3.05712909       1.04948362       0.25684525        6 
C       3.14593611      -0.48492003       0.52482890        6 
C       1.81177195      -0.96055771      -0.09217367        6 
O       1.67663548      -0.10992617      -1.23323459        8 
H       0.61955148       1.63734747       1.33769553        1 
H       0.90753411      -0.60443057       1.89188461        1 
H      -2.94825071      -1.76799777      -0.52322569        1 
H      -3.35481946       0.92220669      -0.60336963        1 
H       1.63413206       1.95840983      -1.23791959        1 
H       3.88872499       1.39719718      -0.36146964        1 
H       3.04402580       1.64800870       1.17336219        1 
H       3.98312318      -0.93354819      -0.01669976        1 
H       3.24807360      -0.74022869       1.58402840        1 
H       1.77201760      -2.00384382      -0.40462179        1 
H      -2.11601604      -2.59596570      -1.88289802        1 
H      -2.12518353      -3.31794897      -0.23617092        1 
H      -3.09309485       2.67190812      -0.41819508        1 
H      -3.75855332       1.71919595       0.95454559        1 
