29
Lattice="0.0 0.0 0.0 0.0 0.0 0.0 0.0 0.0 0.0" Properties=species:S:1:pos:R:3:Z:I:1 pbc="F F F"
C       0.11108179       1.07826150       0.29895749        6 
C       0.47756989      -0.33620092       0.85283139        6 
C      -1.31956266       1.37082177      -0.10346302        6 
C      -0.30042625      -1.48646682       0.18971101        6 
O      -2.17513887       0.94883590       0.84537701        8 
O      -1.65004707       1.93899908      -1.12180968        8 
O       0.47976076      -2.57693146       0.02385505        8 
O      -1.45218344      -1.45577426      -0.18336726        8 
C      -0.15393200      -3.68890354      -0.63062255        6 
C      -3.56502362       1.00876658       0.49252857        6 
C       1.21804576       1.31559686      -0.76476286        6 
C       2.41844404       1.95360809      -0.04438972        6 
C       2.80217634       0.78167714       0.91081973        6 
C       1.94666854      -0.38179441       0.34080664        6 
O       1.72839894      -0.00459756      -1.03366735        8 
H       0.27081485       1.77512748       1.13429512        1 
H       0.36508947      -0.40383437       1.93894867        1 
H      -0.47549898      -3.40316962      -1.63578574        1 
H      -3.75785286       0.33094803      -0.34350211        1 
H       0.86860155       1.78403560      -1.68345816        1 
H       3.21784454       2.15491615      -0.76255541        1 
H       2.17518073       2.88478253       0.47670767        1 
H       3.86694262       0.54123752       0.85515143        1 
H       2.56232786       0.99193652       1.95870350        1 
H       2.41072782      -1.36350820       0.38282200        1 
H       0.60483832      -4.47089301      -0.67573482        1 
H      -1.02496224      -4.02639982      -0.06203135        1 
H      -3.85619273       2.02550117       0.21488746        1 
H      -4.10732219       0.68070903       1.38019988        1 
