29
Lattice="0.0 0.0 0.0 0.0 0.0 0.0 0.0 0.0 0.0" Properties=species:S:1:pos:R:3:Z:I:1 pbc="F F F"
C      -0.63366648       0.42452066      -0.78730510        6 
C      -0.24917585      -1.05747326      -0.40749836        6 
C       0.46230884       1.43469139      -0.46750294        6 
C       1.12021914      -1.19636410       0.23110044        6 
O       0.00142672       2.52638460       0.16703474        8 
O       1.61999766       1.29394570      -0.80241809        8 
O       1.99668652      -1.76612610      -0.61956006        8 
O       1.38989385      -0.86420766       1.36467058        8 
C       3.35202895      -1.81550379      -0.14304828        6 
C       1.00094861       3.50975370       0.49264027        6 
C      -1.95356063       0.59222641       0.00541233        6 
C      -3.07485856      -0.25435843      -0.64522030        6 
C      -2.68434653      -1.68736785      -0.16958752        6 
C      -1.38510687      -1.38611687       0.60667508        6 
O      -1.66836366      -0.12053213       1.21503244        8 
H      -0.78915981       0.50120280      -1.86935273        1 
H      -0.28725338      -1.70004501      -1.28906969        1 
H       3.41541490      -2.39151833       0.78446661        1 
H       1.46387913       3.89986947      -0.41813151        1 
H      -2.21338978       1.62305633       0.23610900        1 
H      -4.04895615       0.04575001      -0.24998775        1 
H      -3.10719735      -0.15202967      -1.73477959        1 
H      -3.43809932      -2.10000132       0.50668081        1 
H      -2.53882798      -2.39626952      -0.99027000        1 
H      -1.10529460      -2.10480415       1.37674774        1 
H       3.92490243      -2.29682265      -0.93650789        1 
H       3.71632892      -0.80046410       0.03679274        1 
H       1.77406336       3.06465650       1.12409327        1 
H       0.47050731       4.29860539       1.02629358        1 
