29
Lattice="0.0 0.0 0.0 0.0 0.0 0.0 0.0 0.0 0.0" Properties=species:S:1:pos:R:3:Z:I:1 pbc="F F F"
C       0.51659306      -0.72127855       0.61445554        6 
C      -0.96185760      -0.22196965       0.77293444        6 
C       1.51784692       0.29100474       0.09021487        6 
C      -1.12961671       1.28671821       0.66094239        6 
O       2.77225759      -0.18053609       0.28090385        8 
O       1.28053605       1.34100410      -0.46333251        8 
O      -1.61371537       1.67157241      -0.53205981        8 
O      -0.87403236       2.04367050       1.57268725        8 
C      -1.61794799       3.09061692      -0.75179410        6 
C       3.82261489       0.66131408      -0.22687709        6 
C       0.31732147      -1.84533270      -0.45320726        6 
C      -0.41261475      -3.05136106       0.18348924        6 
C      -1.87591016      -2.51440132       0.24034648        6 
C      -1.68110393      -1.08307858      -0.30402803        6 
O      -0.67133832      -1.27228227      -1.31029083        8 
H       0.91361525      -1.12907224       1.54702663        1 
H      -1.30991660      -0.47006739       1.77922180        1 
H      -0.59171018       3.46486414      -0.71193455        1 
H       3.79214033       1.64173110       0.25641369        1 
H       1.21601014      -2.08533720      -1.02277309        1 
H      -0.33184103      -3.92699885      -0.46607141        1 
H      -0.00845590      -3.31747271       1.16478941        1 
H      -2.53193996      -3.08186593      -0.42535169        1 
H      -2.30834521      -2.53478915       1.24532445        1 
H      -2.55704033      -0.61683245      -0.75116178        1 
H      -2.04298336       3.23193021      -1.74617950        1 
H      -2.22163078       3.59983818       0.00469235        1 
H       3.71723243       0.79599864      -1.30713977        1 
H       4.75303563       0.14368647       0.00855331        1 
