29
Lattice="0.0 0.0 0.0 0.0 0.0 0.0 0.0 0.0 0.0" Properties=species:S:1:pos:R:3:Z:I:1 pbc="F F F"
C      -0.54240172       0.64172466      -0.86293003        6 
C      -0.53192314      -0.84872160      -0.41957786        6 
C       0.58525978       1.57573895      -0.45074468        6 
C       0.73801803      -1.65759374      -0.23553460        6 
O       1.10378657       1.29929812       0.75629016        8 
O       0.93070303       2.51954169      -1.13266367        8 
O       1.88151021      -0.98164588      -0.43399329        8 
O       0.69860838      -2.83340174       0.06658082        8 
C       3.08451351      -1.75573865      -0.28447576        6 
C       2.15177184       2.17934861       1.18539938        6 
C      -1.81200909       1.09596646      -0.05948668        6 
C      -3.07995144       0.35190605      -0.55922558        6 
C      -2.95615582      -1.00763679       0.19840371        6 
C      -1.53815151      -0.85789443       0.78255056        6 
O      -1.56069084       0.50558331       1.22229017        8 
H      -0.66532945       0.76008063      -1.94045588        1 
H      -1.01107022      -1.40971341      -1.23257554        1 
H       3.09067612      -2.59676148      -0.98333980        1 
H       1.78575414       3.20704943       1.26466797        1 
H      -1.91306714       2.17746607       0.04211745        1 
H      -3.98401611       0.89528249      -0.27302643        1 
H      -3.08830180       0.23747332      -1.64781227        1 
H      -3.68526090      -1.07392630       1.01065094        1 
H      -3.07397482      -1.88344406      -0.44631231        1 
H      -1.26840657      -1.52313021       1.60175817        1 
H       3.90177418      -1.06712954      -0.50033839        1 
H       3.16169904      -2.14287477       0.73522111        1 
H       2.98479761       2.15555776       0.47650154        1 
H       2.46447770       1.80686615       2.16145421        1 
