29
Lattice="0.0 0.0 0.0 0.0 0.0 0.0 0.0 0.0 0.0" Properties=species:S:1:pos:R:3:Z:I:1 pbc="F F F"
C       0.47736763       0.99670605       0.46041195        6 
C       0.42782016      -0.54440971       0.69812497        6 
C      -0.80938418       1.66260682       0.00502959        6 
C      -0.70981017      -1.27201038       0.00047995        6 
O      -1.79807816       1.41661699       0.89265724        8 
O      -0.92644236       2.37562519      -0.96528435        8 
O      -0.67199465      -2.58483040       0.32901552        8 
O      -1.50773485      -0.80814824      -0.78252803        8 
C      -1.65471475      -3.40766369      -0.32411418        6 
C      -3.10188906       1.86070010       0.48456375        6 
C       1.65592987       1.12482345      -0.54282862        6 
C       2.97793505       1.09476157       0.24764453        6 
C       2.98236214      -0.38742041       0.73564764        6 
C       1.75319628      -0.95514993      -0.01769944        6 
O       1.68236419      -0.15513647      -1.20286680        8 
H       0.72757714       1.48037433       1.41207338        1 
H       0.42264781      -0.81928774       1.75581872        1 
H      -1.54966236      -3.34092616      -1.41044849        1 
H      -3.40698119       1.31721376      -0.41414225        1 
H       1.52732155       1.91908686      -1.27571564        1 
H       3.81770760       1.28980267      -0.42464663        1 
H       3.01224019       1.82341155       1.06353440        1 
H       3.89222678      -0.91057869       0.43014511        1 
H       2.88534676      -0.48537329       1.82158467        1 
H       1.80620587      -2.01200589      -0.27974909        1 
H      -1.46201355      -4.42399221       0.02124692        1 
H      -2.66434264      -3.09153374      -0.04628759        1 
H      -3.10080031       2.93425895       0.27804143        1 
H      -3.76685265       1.62887429       1.31781197        1 
