29
Lattice="0.0 0.0 0.0 0.0 0.0 0.0 0.0 0.0 0.0" Properties=species:S:1:pos:R:3:Z:I:1 pbc="F F F"
C       0.56663804      -0.58945881      -0.50984966        6 
C       0.31495510       0.95401084      -0.59085588        6 
C      -0.58703547      -1.44484025      -0.02892195        6 
C      -0.95526276       1.45991528       0.08621958        6 
O      -0.42483569      -2.71182836      -0.48063899        8 
O      -1.52977161      -1.09819836       0.64705606        8 
O      -1.93800694       1.60799566      -0.83479049        8 
O      -1.05718340       1.80322102       1.23956826        8 
C      -3.20866866       2.00870533      -0.29620562        6 
C      -1.43324236      -3.64672635      -0.05865558        6 
C       1.81777439      -0.65061483       0.43023658        6 
C       3.07073512      -0.29908977      -0.40108931        6 
C       2.84514663       1.22936675      -0.61879176        6 
C       1.55292457       1.46292182       0.20070679        6 
O       1.65881798       0.49724770       1.25798054        8 
H       0.83514106      -0.97690137      -1.49614155        1 
H       0.30276483       1.28475337      -1.63166919        1 
H      -3.12370474       2.96868252       0.22076248        1 
H      -2.41560089      -3.34389633      -0.43232252        1 
H       1.88693297      -1.55185586       1.04089709        1 
H       3.97112104      -0.48755693       0.19016635        1 
H       3.14525207      -0.86972879      -1.33162650        1 
H       3.66969801       1.81740148      -0.20743204        1 
H       2.72769782       1.50212043      -1.67229251        1 
H       1.42881816       2.45544296       0.63125344        1 
H      -3.87990242       2.09038320      -1.15246642        1 
H      -3.57020793       1.25406968       0.40816290        1 
H      -1.47291810      -3.70418976       1.03272736        1 
H      -1.13935913      -4.60668299      -0.48463025        1 
