29
Lattice="0.0 0.0 0.0 0.0 0.0 0.0 0.0 0.0 0.0" Properties=species:S:1:pos:R:3:Z:I:1 pbc="F F F"
C       0.69176759      -0.85508077      -0.61748614        6 
C       0.57268659       0.70718559      -0.84616999        6 
C      -0.63842447      -1.56966906      -0.49486150        6 
C      -0.83926001       1.22445648      -0.59265413        6 
O      -1.13413532      -1.49410572       0.76089660        8 
O      -1.17757105      -2.16782344      -1.39744769        8 
O      -0.93358538       2.02337759       0.48525839        8 
O      -1.78568180       0.93482603      -1.29451305        8 
C      -2.26182291       2.47860600       0.79188540        6 
C      -2.44350370      -2.06504781       0.92609266        6 
C       1.63221230      -0.89610602       0.62303602        6 
C       3.08426838      -0.71131621       0.13649459        6 
C       3.04976163       0.78812870      -0.29034413        6 
C       1.62837436       1.20199702       0.16991918        6 
O       1.37743794       0.34385942       1.29287989        8 
H       1.16734770      -1.30658667      -1.49084984        1 
H       0.80899731       0.95516441      -1.88447079        1 
H      -2.91993518       1.62525185       0.97839146        1 
H      -2.42969276      -3.13444770       0.69737992        1 
H       1.45098392      -1.72645043       1.30478480        1 
H       3.77626382      -0.87028199       0.96804927        1 
H       3.36043949      -1.39125058      -0.67511965        1 
H       3.80859723       1.37410816       0.23466411        1 
H       3.19776676       0.93063516      -1.36557925        1 
H       1.51287480       2.24158562       0.47120068        1 
H      -2.16096993       3.09026268       1.68871258        1 
H      -2.66993622       3.06561035      -0.03577881        1 
H      -3.15427502      -1.56809605       0.25979792        1 
H      -2.70626731      -1.89726962       1.97118078        1 
