29
Lattice="0.0 0.0 0.0 0.0 0.0 0.0 0.0 0.0 0.0" Properties=species:S:1:pos:R:3:Z:I:1 pbc="F F F"
C      -0.41071769      -0.80673687       0.50820652        6 
C      -0.70416599       0.73274345       0.63910431        6 
C       0.89769539      -1.16947346      -0.16958595        6 
C       0.38210658       1.70461164       0.20043359        6 
O       1.71691989      -1.82437677       0.68463835        8 
O       1.16818301      -0.96074197      -1.33124171        8 
O       1.61452681       1.25845470       0.51601574        8 
O       0.17128867       2.77205007      -0.33149974        8 
C       2.70331781       2.07679764       0.05446902        6 
C       2.98477124      -2.20588393       0.12879545        6 
C      -1.61211887      -1.22442271      -0.40130186        6 
C      -2.91242438      -1.24137203       0.43429736        6 
C      -3.19543190       0.28702767       0.56937718        6 
C      -1.99513282       0.87626801      -0.20477394        6 
O      -1.78803625      -0.08496261      -1.24740656        8 
H      -0.44346778      -1.29456377       1.48391020        1 
H      -0.89313330       0.97292849       1.69287583        1 
H       2.62205156       3.08941640       0.45784210        1 
H       3.52848348      -1.32286057      -0.21947229        1 
H      -1.42695413      -2.10721952      -1.01380063        1 
H      -3.70779428      -1.74574797      -0.12097154        1 
H      -2.79465261      -1.74975370       1.39626806        1 
H      -4.13022616       0.56230017       0.07427129        1 
H      -3.24582688       0.63068304       1.60725785        1 
H      -2.12933798       1.86903873      -0.63080266        1 
H       3.60841239       1.58698326       0.41488286        1 
H       2.69697279       2.12072853      -1.03788641        1 
H       2.84705692      -2.88834220      -0.71492364        1 
H       3.52584562      -2.69761875       0.93805983        1 
