29
Lattice="0.0 0.0 0.0 0.0 0.0 0.0 0.0 0.0 0.0" Properties=species:S:1:pos:R:3:Z:I:1 pbc="F F F"
C      -0.54596240       0.73698458      -0.79056198        6 
C      -0.68532699      -0.81687519      -0.58709338        6 
C       0.83585725       1.35296402      -0.63163571        6 
C       0.49633126      -1.70608408      -0.23063754        6 
O       1.14221678       1.60446244       0.65633843        8 
O       1.56267139       1.62456310      -1.56291729        8 
O       1.66372174      -1.07041509      -0.04959656        8 
O       0.36319790      -2.90660822      -0.10837768        8 
C       2.77877743      -1.91221270       0.29435847        6 
C       2.46235663       2.11790209       0.87434595        6 
C      -1.56890432       1.24268479       0.27345079        6 
C      -3.00979160       1.00825819      -0.23323297        6 
C      -3.14846502      -0.53178276      -0.03091138        6 
C      -1.75793536      -0.87422338       0.54706212        6 
O      -1.44046518       0.27971537       1.32939208        8 
H      -0.85256372       0.99754610      -1.80602359        1 
H      -1.08533367      -1.27435688      -1.49738985        1 
H       2.92728061      -2.67948614      -0.46957400        1 
H       2.60582146       3.06460901       0.34527424        1 
H      -1.35895882       2.23883419       0.66066605        1 
H      -3.72094687       1.55654438       0.39049024        1 
H      -3.15174792       1.32748709      -1.27026440        1 
H      -3.92492120      -0.76818530       0.70144169        1 
H      -3.37290775      -1.07683133      -0.95243949        1 
H      -1.70351899      -1.77643377       1.15561269        1 
H       3.63997353      -1.24608765       0.34735116        1 
H       2.60245288      -2.39719374       1.25831213        1 
H       3.20758713       1.39967780       0.51931690        1 
H       2.54826216       2.26056189       1.95213840        1 
