29
Lattice="0.0 0.0 0.0 0.0 0.0 0.0 0.0 0.0 0.0" Properties=species:S:1:pos:R:3:Z:I:1 pbc="F F F"
C      -0.72730812       0.47542605      -0.88130811        6 
C      -0.27074981      -0.96695267      -0.43036597        6 
C       0.37495367       1.50766563      -0.69490836        6 
C       1.13129229      -1.02869092       0.14314645        6 
O       0.19333667       2.28759445       0.37945471        8 
O       1.33108489       1.58016188      -1.43953285        8 
O       1.86441976      -1.97515356      -0.48015785        8 
O       1.54639464      -0.35364208       1.06070341        8 
C       3.21772273      -2.10396876      -0.00900682        6 
C       1.30480699       3.13841595       0.70771914        6 
C      -1.98743402       0.66621475      -0.00110732        6 
C      -3.13616377      -0.22496044      -0.53084156        6 
C      -2.67756798      -1.63107669      -0.03410408        6 
C      -1.34658261      -1.26838060       0.66237505        6 
O      -1.61774408       0.01571125       1.22288119        8 
H      -0.95490839       0.46845117      -1.95051386        1 
H      -0.33319369      -1.67127488      -1.26136873        1 
H       3.23143977      -2.39248291       1.04603863        1 
H       1.53443989       3.81395221      -0.12089486        1 
H      -2.24516506       1.70464904       0.20037098        1 
H      -4.08315606       0.06885784      -0.07076450        1 
H      -3.25305317      -0.16540462      -1.61748212        1 
H      -3.38085422      -2.04430537       0.69410931        1 
H      -2.55349648      -2.36081002      -0.83976966        1 
H      -1.01825622      -1.95045789       1.44781178        1 
H       3.66969925      -2.88056819      -0.62674797        1 
H       3.75016367      -1.15617034      -0.12561193        1 
H       2.17967569       2.52173399       0.92935034        1 
H       0.99325729       3.69731445       1.59043214        1 
