29
Lattice="0.0 0.0 0.0 0.0 0.0 0.0 0.0 0.0 0.0" Properties=species:S:1:pos:R:3:Z:I:1 pbc="F F F"
C      -0.79285045       0.05665257      -0.56738390        6 
C       0.42928462      -0.91767382      -0.53311919        6 
C      -0.51056914       1.51166760      -0.24170725        6 
C       1.67012793      -0.38478502       0.17086951        6 
O      -1.67571593       2.19475121      -0.16387802        8 
O       0.57630875       2.03953794      -0.16472725        8 
O       2.70390424      -0.29422246      -0.69747963        8 
O       1.76504183      -0.16683797       1.35615894        8 
C       3.90696513       0.25494308      -0.13573887        6 
C      -1.54473760       3.60678644       0.07808187        6 
C      -1.81087402      -0.66685454       0.36583431        6 
C      -2.46098337      -1.83070766      -0.41244083        6 
C      -1.26032676      -2.82455247      -0.49632405        6 
C      -0.18856827      -2.06741680       0.32506694        6 
O      -0.96586737      -1.35137900       1.29259586        8 
H      -1.20040682       0.09133052      -1.58505376        1 
H       0.70488819      -1.24448391      -1.53720837        1 
H       4.26519764      -0.36432265       0.69155565        1 
H      -0.98161511       4.08236565      -0.72995722        1 
H      -2.49235217      -0.00126784       0.89370820        1 
H      -3.28370950      -2.25231914       0.17126992        1 
H      -2.85211190      -1.53215799      -1.38992511        1 
H      -1.49798687      -3.77980437      -0.02078956        1 
H      -0.93842426      -3.02816383      -1.52232906        1 
H       0.54497689      -2.69002598       0.83722335        1 
H       4.63279762       0.26918973      -0.95000494        1 
H       3.71798592       1.26718743       0.23274617        1 
H      -1.02738116       3.78645582       1.02452958        1 
H      -2.56400564       3.99250437       0.11686932        1 
