29
Lattice="0.0 0.0 0.0 0.0 0.0 0.0 0.0 0.0 0.0" Properties=species:S:1:pos:R:3:Z:I:1 pbc="F F F"
C      -0.73360107      -0.25750951      -0.68783398        6 
C       0.77960947      -0.32286584      -0.37744155        6 
C      -1.54143865       0.81245066       0.03324140        6 
C       1.55339001       0.96898125      -0.19113996        6 
O      -2.75837620       0.91346982      -0.56807842        8 
O      -1.25593529       1.38207401       1.05653457        8 
O       2.88250592       0.67688930      -0.20763031        8 
O       1.13001946       2.09971370      -0.17806813        8 
C       3.75363884       1.81564944      -0.10831263        6 
C      -3.68870918       1.78431763       0.09482632        6 
C      -1.15986627      -1.60151819      -0.00179394        6 
C      -0.46976392      -2.82041575      -0.67266353        6 
C       0.93667364      -2.78994882       0.00628397        6 
C       0.84913047      -1.43331038       0.73175270        6 
O      -0.48321883      -1.48577279       1.25668361        8 
H      -0.95540716      -0.23724322      -1.75668216        1 
H       1.26274852      -0.74256095      -1.26823774        1 
H       3.56671427       2.36677526       0.81782904        1 
H      -3.30707385       2.80913945       0.11737051        1 
H      -2.23399202      -1.69771813       0.15897205        1 
H      -1.01006016      -3.74271520      -0.44423554        1 
H      -0.42289636      -2.71893261      -1.76164901        1 
H       1.03825007      -3.59571894       0.73853700        1 
H       1.76784830      -2.85466762      -0.70236259        1 
H       1.56561980      -1.25281019       1.53192133        1 
H       4.76707917       1.41251529      -0.11783471        1 
H       3.59824069       2.49002843      -0.95547533        1 
H      -3.86144560       1.45111509       1.12241216        1 
H      -4.60936525       1.73054815      -0.48806356        1 
