29
Lattice="0.0 0.0 0.0 0.0 0.0 0.0 0.0 0.0 0.0" Properties=species:S:1:pos:R:3:Z:I:1 pbc="F F F"
C      -0.29256264      -0.76611030       0.53259290        6 
C      -0.77562416       0.68987461       0.80209601        6 
C       1.19847608      -1.03970024       0.58080284        6 
C       0.01884507       1.85415611       0.20365868        6 
O       1.57347410      -1.94408445      -0.35259230        8 
O       1.93678088      -0.62570931       1.44558069        8 
O       1.26101947       1.54145223      -0.19251717        8 
O      -0.44670954       2.97186860       0.12051601        8 
C       2.01088906       2.61792502      -0.78059864        6 
C       2.95403653      -2.34021938      -0.29229255        6 
C      -1.14095169      -1.15832012      -0.72030897        6 
C      -2.47935950      -1.72222301      -0.20883665        6 
C      -3.07022861      -0.43977287       0.45646547        6 
C      -2.08511328       0.64946914      -0.03833478        6 
O      -1.56285063       0.10384772      -1.26653363        8 
H      -0.64591757      -1.36690147       1.38189551        1 
H      -0.93300865       0.89964416       1.86317521        1 
H       2.08470554       3.45574238      -0.08277758        1 
H       3.18111587      -2.79212786       0.67750461        1 
H      -0.61417714      -1.73709279      -1.47596245        1 
H      -3.09219924      -2.04600385      -1.05446808        1 
H      -2.36668213      -2.56379853       0.48210308        1 
H      -4.08434005      -0.23113485       0.10640243        1 
H      -3.10022680      -0.50066950       1.54930594        1 
H      -2.51229787       1.63397885      -0.21977982        1 
H       2.99611380       2.20242951      -0.99340251        1 
H       1.52625182       2.95994945      -1.69948771        1 
H       3.60645755      -1.47484112      -0.43868059        1 
H       3.08751420      -3.06396703      -1.09709179        1 
