29
Lattice="0.0 0.0 0.0 0.0 0.0 0.0 0.0 0.0 0.0" Properties=species:S:1:pos:R:3:Z:I:1 pbc="F F F"
C      -0.60409727       0.71383571      -0.84693161        6 
C      -0.71246628      -0.84928871      -0.61990793        6 
C       0.81730014       1.22552649      -0.65630675        6 
C       0.61642838      -1.55910893      -0.46507779        6 
O       1.00657014       1.85036062       0.51830591        8 
O       1.69626342       1.04943843      -1.47448234        8 
O       1.19476423      -1.29042851       0.72688951        8 
O       1.09701351      -2.29921402      -1.29358202        8 
C       2.49734535      -1.87066542       0.90938597        6 
C       2.36183085       2.24148045       0.78760003        6 
C      -1.62525632       1.21028650       0.20565380        6 
C      -3.06241153       0.83377733      -0.23449837        6 
C      -3.10690830      -0.68006009       0.13864119        6 
C      -1.65595175      -0.89406765       0.62079335        6 
O      -1.37817330       0.32788012       1.30950866        8 
H      -0.88315194       0.96093998      -1.87412370        1 
H      -1.17814224      -1.31440061      -1.49083008        1 
H       3.18200504      -1.50370942       0.13949293        1 
H       2.72902482       2.92657338       0.01840119        1 
H      -1.48166034       2.24189643       0.52347695        1 
H      -3.79817032       1.40818326       0.33446403        1 
H      -3.23808105       1.02004836      -1.29864505        1 
H      -3.80185770      -0.86438934       0.96246402        1 
H      -3.38598752      -1.32886371      -0.69696210        1 
H      -1.49103266      -1.73957766       1.28881210        1 
H       2.82150960      -1.55428893       1.90146582        1 
H       2.44550270      -2.96123836       0.84855752        1 
H       3.00672823       1.35838772       0.81314670        1 
H       2.33723249       2.72874331       1.76253933        1 
