29
Lattice="0.0 0.0 0.0 0.0 0.0 0.0 0.0 0.0 0.0" Properties=species:S:1:pos:R:3:Z:I:1 pbc="F F F"
C       0.01645878       1.05061523       0.29900144        6 
C       0.49474429      -0.32341988       0.86433241        6 
C      -1.43240201       1.29702205      -0.06684392        6 
C      -0.16423409      -1.54488259       0.19558139        6 
O      -2.27100014       0.68579860       0.78455713        8 
O      -1.78634982       1.99796296      -0.99194165        8 
O       0.71781682      -2.56065397       0.05251126        8 
O      -1.30365812      -1.62309238      -0.20461763        8 
C       0.20004490      -3.72831194      -0.60539933        6 
C      -3.66415653       0.77792058       0.45117257        6 
C       1.09360391       1.36685147      -0.77645071        6 
C       2.23255477       2.12096263      -0.07107877        6 
C       2.72032919       1.00144195       0.90176154        6 
C       1.96684018      -0.24148560       0.35619226        6 
O       1.71673726       0.09271646      -1.02458146        8 
H       0.15043761       1.76187153       1.12845254        1 
H       0.38231287      -0.39661089       1.95001346        1 
H      -0.13951733      -3.47662761      -1.61375682        1 
H      -3.84997198       0.27095303      -0.49972893        1 
H       0.70051855       1.78889480      -1.70000732        1 
H       3.01078277       2.38466723      -0.79255884        1 
H       1.90491031       3.03326127       0.43683240        1 
H       3.80125455       0.85165151       0.84164175        1 
H       2.47067149       1.20664512       1.94834700        1 
H       2.51682190      -1.17688970       0.41304549        1 
H       1.03063432      -4.43413558      -0.64286445        1 
H      -0.63919935      -4.14903625      -0.04402670        1 
H      -3.97937740       1.82215687       0.37289361        1 
H      -4.19289159       0.27334973       1.26046000        1 
