29
Lattice="0.0 0.0 0.0 0.0 0.0 0.0 0.0 0.0 0.0" Properties=species:S:1:pos:R:3:Z:I:1 pbc="F F F"
C       0.58027550      -0.75022484      -0.82551766        6 
C       0.70942760       0.80593700      -0.60241294        6 
C      -0.80807992      -1.35666796      -0.68440054        6 
C      -0.52025211       1.66644832      -0.38435567        6 
O      -1.14331391      -1.62295193       0.58956238        8 
O      -1.54006332      -1.56490930      -1.63015753        8 
O      -1.42931835       1.11693483       0.44153271        8 
O      -0.63952547       2.77365952      -0.86659285        8 
C      -2.59150735       1.92228284       0.70134341        6 
C      -2.48610718      -2.08761137       0.77937819        6 
C       1.57548695      -1.26149722       0.25706196        6 
C       3.02918712      -0.95046250      -0.17237719        6 
C       3.11536413       0.57460500       0.14410202        6 
C       1.67495874       0.84357443       0.63277624        6 
O       1.35406490      -0.35050208       1.34250828        8 
H       0.90082749      -0.99959364      -1.83911727        1 
H       1.19406459       1.25843904      -1.46938842        1 
H      -3.13358634       2.12170028      -0.22731666        1 
H      -2.66107384      -3.01720450       0.22987182        1 
H       1.38817607      -2.28040565       0.59432906        1 
H       3.73569558      -1.52428749       0.43323580        1 
H       3.21567026      -1.18609881      -1.22456323        1 
H       3.82463232       0.77238018       0.95240880        1 
H       3.39850075       1.18653437      -0.71707184        1 
H       1.54776410       1.71054828       1.28250783        1 
H      -3.20289623       1.33510715       1.38719499        1 
H      -2.30490670       2.87415416       1.15644635        1 
H      -3.19660958      -1.33226072       0.43020395        1 
H      -2.59134412      -2.24768726       1.85295642        1 
