29
Lattice="0.0 0.0 0.0 0.0 0.0 0.0 0.0 0.0 0.0" Properties=species:S:1:pos:R:3:Z:I:1 pbc="F F F"
C       0.55848751       0.90270133       0.41236572        6 
C       0.31718433      -0.59340362       0.73933406        6 
C      -0.60918603       1.82133310       0.11569951        6 
C      -0.82944529      -1.23681675      -0.02833534        6 
O      -1.74588941       1.40938495       0.70609164        8 
O      -0.51240865       2.83711678      -0.53939904        8 
O      -0.97692500      -2.52182529       0.37938600        8 
O      -1.45858036      -0.75385282      -0.94057332        8 
C      -1.95929027      -3.28111561      -0.34519402        6 
C      -2.90891257       2.20309529       0.42185597        6 
C       1.69060294       0.83546255      -0.65728755        6 
C       3.03329524       0.77531244       0.09357522        6 
C       2.89256834      -0.61779362       0.78503180        6 
C       1.62039697      -1.17570442       0.09342589        6 
O       1.60321843      -0.50386588      -1.17359588        8 
H       0.98133598       1.35584608       1.32106437        1 
H       0.22742969      -0.80950592       1.80588551        1 
H      -1.69708885      -3.33279834      -1.40578252        1 
H      -3.12715681       2.17355696      -0.64909583        1 
H       1.59681362       1.56300980      -1.46163561        1 
H       3.85994804       0.77919498      -0.62197494        1 
H       3.17771468       1.60070527       0.79713690        1 
H       3.75347517      -1.26060738       0.58359565        1 
H       2.77333973      -0.54726847       1.87098358        1 
H       1.59786205      -2.25543898      -0.05451479        1 
H      -1.95165032      -4.27547034       0.10303368        1 
H      -2.94792938      -2.82317543      -0.24849017        1 
H      -2.75611591       3.24132336       0.72961908        1 
H      -3.72043692       1.74719048       0.99022668        1 
