29
Lattice="0.0 0.0 0.0 0.0 0.0 0.0 0.0 0.0 0.0" Properties=species:S:1:pos:R:3:Z:I:1 pbc="F F F"
C      -0.30961827       0.72072769       0.39693336        6 
C       0.92608158      -0.09544269       0.85168689        6 
C      -1.66850386       0.05108709       0.31147581        6 
C       1.07983411      -1.55026424       0.42949160        6 
O      -2.61242283       1.02200222       0.18163683        8 
O      -1.94703475      -1.11585389       0.45896395        8 
O       0.38927678      -1.87455321      -0.66950166        8 
O       1.81416186      -2.31512943       1.02257236        8 
C       0.50159537      -3.24268989      -1.08713862        6 
C      -3.96953425       0.55095844       0.13671340        6 
C       0.23922580       1.49905332      -0.85304860        6 
C       0.89224816       2.79158356      -0.32690980        6 
C       2.07996363       2.17816402       0.48036315        6 
C       2.01358574       0.68970095       0.04172286        6 
O       1.39274168       0.74902566      -1.25224910        8 
H      -0.48298143       1.47243471       1.17597338        1 
H       1.09158422      -0.05693436       1.92955511        1 
H       0.14674192      -3.90977398      -0.29656003        1 
H      -4.22584338       0.03164996       1.06471450        1 
H      -0.45517091       1.60002514      -1.68660385        1 
H       1.25438051       3.39028551      -1.16709056        1 
H       0.21925126       3.40688283       0.27775186        1 
H       3.03668311       2.62299623       0.19558578        1 
H       1.96525084       2.29165063       1.56296708        1 
H       2.97191889       0.17394501      -0.02764510        1 
H      -0.12830684      -3.32930643      -1.97281797        1 
H       1.54013315      -3.49059998      -1.32499833        1 
H      -4.11294448      -0.13689407      -0.70161693        1 
H      -4.58591367       1.44203443       0.01165074        1 
