29
Lattice="0.0 0.0 0.0 0.0 0.0 0.0 0.0 0.0 0.0" Properties=species:S:1:pos:R:3:Z:I:1 pbc="F F F"
C      -0.65110802      -0.84365249       0.58594163        6 
C      -0.39801401       0.70438750       0.56516794        6 
C       0.48436919      -1.69510362       0.03659545        6 
C       0.89851523       1.14294211      -0.08202035        6 
O       1.56327989      -1.60110392       0.84739627        8 
O       0.42461679      -2.41912269      -0.92913049        8 
O       1.37134522       2.25798231       0.52036609        8 
O       1.43122778       0.62606038      -1.03960727        8 
C       2.56755237       2.80202982      -0.06427905        6 
C       2.74228550      -2.26202046       0.35745153        6 
C      -1.92821038      -0.95265418      -0.28329877        6 
C      -3.15296705      -0.46490837       0.52026772        6 
C      -2.90869999       1.07590891       0.52839839        6 
C      -1.61174259       1.16734994      -0.31005782        6 
O      -1.74741449       0.10031060      -1.24522733        8 
H      -0.82083616      -1.17193866       1.61670411        1 
H      -0.44425501       1.13601206       1.56656003        1 
H       2.39225490       3.08260814      -1.10678530        1 
H       3.03793794      -1.82628514      -0.60099792        1 
H      -2.02943031      -1.90499398      -0.80059105        1 
H      -4.07356859      -0.71651752      -0.01300718        1 
H      -3.21051294      -0.90119817       1.52246826        1 
H      -3.71897751       1.61348027       0.02856655        1 
H      -2.79216879       1.49355807       1.53309343        1 
H      -1.45613741       2.10937793      -0.83841738        1 
H       2.81495000       3.67851360       0.53537960        1 
H       3.37714057       2.06756173      -0.02911258        1 
H       2.55982737      -3.33224986       0.22612163        1 
H       3.51037517      -2.09252013       1.11319845        1 
