29
Lattice="0.0 0.0 0.0 0.0 0.0 0.0 0.0 0.0 0.0" Properties=species:S:1:pos:R:3:Z:I:1 pbc="F F F"
C      -0.88953825       0.39374302      -0.84613104        6 
C       0.04962961      -0.77227885      -0.45158259        6 
C      -0.59963413       1.80043490      -0.33072781        6 
C       1.54851533      -0.55159432      -0.44893382        6 
O       0.44627173       1.88702246       0.50011575        8 
O      -1.30156167       2.74351961      -0.63559914        8 
O       2.15927705      -1.64091455       0.08374225        8 
O       2.14958326       0.34763761      -0.98897132        8 
C       3.59518276      -1.62558797       0.02171365        6 
C       0.70683843       3.19774681       1.02619054        6 
C      -2.14492380      -0.05337141      -0.02388580        6 
C      -2.66480024      -1.44840001      -0.45808369        6 
C      -1.68954230      -2.39717148       0.30839703        6 
C      -0.66268253      -1.36573209       0.81056980        6 
O      -1.52660320      -0.30623973       1.25149142        8 
H      -1.07523472       0.46349673      -1.91977369        1 
H      -0.04112350      -1.52366881      -1.24926509        1 
H       3.99443852      -0.75326552       0.54663315        1 
H      -0.14080460       3.54495400       1.62389764        1 
H      -2.89995017       0.72618705       0.07330864        1 
H      -3.70109292      -1.58884284      -0.14087049        1 
H      -2.62497354      -1.58071517      -1.54421242        1 
H      -2.18647645      -2.87310321       1.15837498        1 
H      -1.25134547      -3.17764290      -0.32120922        1 
H      -0.00083154      -1.67617165       1.61741419        1 
H       3.92005041      -2.54750018       0.50553938        1 
H       3.93257751      -1.59556006      -1.01848709        1 
H       0.88319996       3.90558555       0.21192648        1 
H       1.59861503       3.09113877       1.64418797        1 
