29
Lattice="0.0 0.0 0.0 0.0 0.0 0.0 0.0 0.0 0.0" Properties=species:S:1:pos:R:3:Z:I:1 pbc="F F F"
C      -0.55422808      -0.79610902       0.42013493        6 
C      -0.52071167       0.75731264       0.69563332        6 
C       0.72022142      -1.48000789      -0.03212105        6 
C       0.54706171       1.59365440      -0.01942127        6 
O       1.64249399      -1.46233337       0.95059423        8 
O       0.90134468      -1.98403292      -1.11961401        8 
O       1.79950005       1.16936001       0.24295675        8 
O       0.31415420       2.57200728      -0.69441313        8 
C       2.84529454       1.93143309      -0.38572324        6 
C       2.93084387      -1.97870538       0.58858106        6 
C      -1.75676745      -0.91166643      -0.55843781        6 
C      -3.04853520      -0.97673316       0.27725753        6 
C      -3.06046606       0.46552037       0.87258124        6 
C      -1.89805237       1.13082871       0.09194560        6 
O      -1.85321959       0.39498541      -1.14204055        8 
H      -0.80028454      -1.27533366       1.37512991        1 
H      -0.42882551       0.95648021       1.76834762        1 
H       2.80845388       2.97479985      -0.06067408        1 
H       3.36099407      -1.38031834      -0.22007318        1 
H      -1.62664160      -1.66067028      -1.33811774        1 
H      -3.90600084      -1.13766588      -0.38183307        1 
H      -3.04374137      -1.76526404       1.03654783        1 
H      -4.00298445       0.97984081       0.66861256        1 
H      -2.89757139       0.48276877       1.95559950        1 
H      -2.00891732       2.19198836      -0.12045179        1 
H       3.77691364       1.46074893      -0.06992015        1 
H       2.74144081       1.89483513      -1.47351052        1 
H       2.85580389      -3.01873234       0.25889683        1 
H       3.54194284      -1.90257658       1.48866865        1 
