29
Lattice="0.0 0.0 0.0 0.0 0.0 0.0 0.0 0.0 0.0" Properties=species:S:1:pos:R:3:Z:I:1 pbc="F F F"
C      -0.58479747       0.66066069      -0.77069273        6 
C      -0.62017112      -0.90500899      -0.59346548        6 
C       0.75759971       1.35448370      -0.61318646        6 
C       0.60988556      -1.64463811      -0.07711236        6 
O       1.05180822       1.59563633       0.68243179        8 
O       1.45247343       1.71090123      -1.53887533        8 
O       1.76791591      -1.02420350      -0.35704664        8 
O       0.54753969      -2.71570164       0.48826020        8 
C       2.95850743      -1.69836748       0.08582541        6 
C       2.32650250       2.21261620       0.90817324        6 
C      -1.65788161       1.08241048       0.28207339        6 
C      -3.06375738       0.84037139      -0.30539915        6 
C      -3.13562766      -0.71613636      -0.25270983        6 
C      -1.78603087      -1.05482182       0.41938392        6 
O      -1.55979093       0.06495665       1.28777415        8 
H      -0.90509489       0.91034341      -1.78462934        1 
H      -0.85698216      -1.38392434      -1.55081507        1 
H       3.02097352      -2.69511801      -0.35889437        1 
H       2.38102623       3.18517778       0.41038649        1 
H      -1.48965680       2.05999024       0.73209492        1 
H      -3.82041628       1.29473606       0.34003671        1 
H      -3.18477027       1.24959724      -1.31303263        1 
H      -3.96494556      -1.05835638       0.37196177        1 
H      -3.24400263      -1.17846260      -1.23913759        1 
H      -1.74966680      -1.98387675       0.98541351        1 
H       3.78614339      -1.07250985      -0.24848964        1 
H       2.95547277      -1.79351672       1.17508603        1 
H       3.12844788       1.57556374       0.52284849        1 
H       2.41139695       2.32687929       1.98941794        1 
