29
Lattice="0.0 0.0 0.0 0.0 0.0 0.0 0.0 0.0 0.0" Properties=species:S:1:pos:R:3:Z:I:1 pbc="F F F"
C      -0.30735910      -0.88535861       0.59916109        6 
C      -0.54742101       0.65845141       0.46977381        6 
C       0.93392963      -1.45203551      -0.08452804        6 
C       0.61418142       1.49860099      -0.02109293        6 
O       1.86638814      -1.77626987       0.84667275        8 
O       1.04498104      -1.71496268      -1.25728181        8 
O       0.56230455       2.72402885       0.55843590        8 
O       1.47621059       1.17502285      -0.80623578        8 
C       1.58958903       3.63815358       0.13803103        6 
C       3.07847124      -2.33110125       0.30930933        6 
C      -1.56793024      -1.40478634      -0.15636935        6 
C      -2.84658279      -1.11217132       0.66700921        6 
C      -3.05385892       0.40705862       0.37636368        6 
C      -1.79852780       0.69970842      -0.47448746        6 
O      -1.66753981      -0.48567331      -1.25197204        8 
H      -0.28649835      -1.18206192       1.64957842        1 
H      -0.82010588       1.06531734       1.44642368        1 
H       1.52057445       3.82644951      -0.93728446        1 
H       3.54043656      -1.62753116      -0.38876488        1 
H      -1.47094971      -2.41822236      -0.54406474        1 
H      -3.68392430      -1.70794577       0.29445564        1 
H      -2.72030317      -1.33442025       1.73124880        1 
H      -3.95362185       0.57801933      -0.22114218        1 
H      -3.11710299       1.02274162       1.27829676        1 
H      -1.85519121       1.57287835      -1.12579053        1 
H       1.41510108       4.55528628       0.70172107        1 
H       2.57925488       3.22935158       0.36052311        1 
H       2.87148309      -3.26720263      -0.21758564        1 
H       3.72761760      -2.50817906       1.16803580        1 
