29
Lattice="0.0 0.0 0.0 0.0 0.0 0.0 0.0 0.0 0.0" Properties=species:S:1:pos:R:3:Z:I:1 pbc="F F F"
C      -0.54583005       0.71918709      -0.82887584        6 
C      -0.64659999      -0.81069660      -0.50313589        6 
C       0.76285637       1.45155686      -0.57147185        6 
C       0.56391253      -1.69835198      -0.26991544        6 
O       1.10818853       1.47018276       0.72796027        8 
O       1.40446477       1.99585937      -1.44607071        8 
O       1.73205279      -1.05904886      -0.10025164        8 
O       0.45122819      -2.90646353      -0.21648808        8 
C       2.87135514      -1.90947651       0.12105218        6 
C       2.36371169       2.10008178       1.01232283        6 
C      -1.66118437       1.24576384       0.13379797        6 
C      -3.05776742       0.79008280      -0.36252994        6 
C      -3.08736014      -0.68820702       0.13604924        6 
C      -1.65613281      -0.82132037       0.69582271        6 
O      -1.45582058       0.45267683       1.30922898        8 
H      -0.78057882       0.90707241      -1.87775396        1 
H      -1.12685580      -1.30367517      -1.35467804        1 
H       3.00435138      -2.59697955      -0.71843413        1 
H       2.36425204       3.14112731       0.67670722        1 
H      -1.57481707       2.30289337       0.38691987        1 
H      -3.84368645       1.38821619       0.10598619        1 
H      -3.16525398       0.88110022      -1.44777579        1 
H      -3.81166601      -0.81762393       0.94492717        1 
H      -3.31689288      -1.41433580      -0.64904145        1 
H      -1.49278573      -1.62389289       1.41472496        1 
H       3.72368511      -1.23548451       0.20846124        1 
H       2.73851575      -2.48985600       1.03804419        1 
H       3.17592811       1.56692079       0.50846429        1 
H       2.48107981       2.04347007       2.09509426        1 
