29
Lattice="0.0 0.0 0.0 0.0 0.0 0.0 0.0 0.0 0.0" Properties=species:S:1:pos:R:3:Z:I:1 pbc="F F F"
C       0.75215484      -0.74322924      -0.77529755        6 
C       0.38732263       0.76026868      -0.57019086        6 
C      -0.16302037      -1.81338099      -0.17879298        6 
C      -1.08388745       1.12529422      -0.62309410        6 
O      -1.38376669      -1.37642873       0.16708186        8 
O       0.19127604      -2.96731900      -0.05669181        8 
O      -1.45954153       1.91688202       0.40513686        8 
O      -1.80810463       0.84281717      -1.55138032        8 
C      -2.83352348       2.33773256       0.37132417        6 
C      -2.26227306      -2.36651084       0.72877997        6 
C       2.03815726      -0.78964009       0.09656075        6 
C       3.13113599       0.17619570      -0.42725740        6 
C       2.64700171       1.53972936       0.15708888        6 
C       1.25599811       1.12758105       0.67450214        6 
O       1.54921779      -0.14069224       1.28620844        8 
H       0.91906560      -1.00006260      -1.82476168        1 
H       0.78270343       1.29509522      -1.44307311        1 
H      -3.49700377       1.46894185       0.40845981        1 
H      -1.85792819      -2.74073346       1.67341139        1 
H       2.36506698      -1.80151626       0.32957568        1 
H       4.11395347      -0.10590784      -0.04142067        1 
H       3.18768877       0.17627933      -1.52078177        1 
H       3.27556316       1.85491839       0.99440722        1 
H       2.61858436       2.34799575      -0.58069612        1 
H       0.77895936       1.78850106       1.39485364        1 
H      -2.97092588       2.96549158       1.25242350        1 
H      -3.04118828       2.90027503      -0.54322493        1 
H      -2.38500867      -3.20297943       0.03612611        1 
H      -3.21139961      -1.85443984       0.88933316        1 
