29
Lattice="0.0 0.0 0.0 0.0 0.0 0.0 0.0 0.0 0.0" Properties=species:S:1:pos:R:3:Z:I:1 pbc="F F F"
C       0.67416355      -0.72917777      -0.66705175        6 
C       0.45676820       0.82129438      -0.47700539        6 
C      -0.42279072      -1.64678293      -0.14303431        6 
C      -0.85602896       1.21261083       0.17152046        6 
O      -1.64638273      -1.21832706      -0.52061889        8 
O      -0.23598008      -2.66015464       0.49182209        8 
O      -1.69656542       1.76531577      -0.73110672        8 
O      -1.12431561       1.07556032       1.34496622        8 
C      -2.99538381       2.10086375      -0.21952402        6 
C      -2.75287349      -1.97635804      -0.00062586        6 
C       1.99695728      -0.93917269       0.10693824        6 
C       3.17531522      -0.31443542      -0.67541299        6 
C       2.95640325       1.20262521      -0.38633090        6 
C       1.66345885       1.15098280       0.45531350        6 
O       1.83260600      -0.04805462       1.21744502        8 
H       0.77652936      -0.95851884      -1.73429037        1 
H       0.52967826       1.33443591      -1.43803844        1 
H      -2.91576570       2.81135030       0.60799660        1 
H      -2.78308308      -1.88864756       1.08884773        1 
H       2.13463526      -1.95801513       0.46453436        1 
H       4.12729806      -0.66511078      -0.26834661        1 
H       3.15342390      -0.56098022      -1.74184411        1 
H       3.77349104       1.61189757       0.21389042        1 
H       2.86007063       1.81100987      -1.29085551        1 
H       1.49200419       1.98977622       1.12972817        1 
H      -3.53762606       2.54212292      -1.05665711        1 
H      -3.50488438       1.20048067       0.13717454        1 
H      -2.66239738      -3.02995391      -0.27663519        1 
H      -3.64434889      -1.53413849      -0.44693796        1 
