29
Lattice="0.0 0.0 0.0 0.0 0.0 0.0 0.0 0.0 0.0" Properties=species:S:1:pos:R:3:Z:I:1 pbc="F F F"
C       0.40086614       1.00718875       0.39803749        6 
C       0.39860540      -0.49824470       0.77715402        6 
C      -0.91149458       1.68359940       0.05770655        6 
C      -0.63300231      -1.33255907       0.02220131        6 
O      -1.91492868       1.21892590       0.82758975        8 
O      -1.03397200       2.56543964      -0.76416544        8 
O      -0.44321190      -2.64536598       0.29828964        8 
O      -1.44880122      -0.94025941      -0.78031339        8 
C      -1.28939025      -3.55088634      -0.43084887        6 
C      -3.22284077       1.70462595       0.48784785        6 
C       1.52736464       1.07957124      -0.67470434        6 
C       2.86305970       1.26819904       0.06613734        6 
C       2.94200344      -0.09308911       0.82670370        6 
C       1.78315380      -0.88350486       0.16272683        6 
O       1.65814678      -0.27881697      -1.13444330        8 
H       0.73609676       1.55582229       1.28940830        1 
H       0.32384810      -0.68845291       1.85040033        1 
H      -1.13266066      -3.43528559      -1.50689749        1 
H      -3.48556076       1.37608667      -0.52166649        1 
H       1.31175601       1.74653321      -1.50757147        1 
H       3.67791582       1.36403443      -0.65655138        1 
H       2.87818666       2.14080756       0.72659651        1 
H       3.89772924      -0.59734841       0.66199313        1 
H       2.80020365       0.01263858       1.90735587        1 
H       1.94076263      -1.95619360       0.06049920        1 
H      -1.00042655      -4.55030191      -0.10335962        1 
H      -2.34246923      -3.36104601      -0.20431522        1 
H      -3.25987883       2.79639424       0.53558392        1 
H      -3.89940089       1.26333043       1.22087164        1 
