29
Lattice="0.0 0.0 0.0 0.0 0.0 0.0 0.0 0.0 0.0" Properties=species:S:1:pos:R:3:Z:I:1 pbc="F F F"
C      -0.41980752      -0.78889216       0.51452002        6 
C      -0.41858380       0.78620369       0.56107163        6 
C       0.77589670      -1.47505814      -0.11964927        6 
C       0.75344852       1.51134972      -0.08030027        6 
O       1.29065377      -2.39522583       0.73912843        8 
O       1.18770214      -1.31587798      -1.24387538        8 
O       1.43029713       2.22287386       0.86067019        8 
O       1.01255001       1.55768997      -1.25836848        8 
C       2.52560772       3.00162230       0.35097500        6 
C       2.38158221      -3.16750443       0.20978595        6 
C      -1.70926975      -1.04938307      -0.33333839        6 
C      -2.95389929      -0.80481253       0.55100541        6 
C      -2.95746133       0.75384504       0.62136593        6 
C      -1.72221744       1.08741082      -0.24772285        6 
O      -1.73390415       0.05482957      -1.23393279        8 
H      -0.52869871      -1.18527998       1.52550653        1 
H      -0.49546972       1.12401727       1.59595373        1 
H       2.16566035       3.74918229      -0.36224144        1 
H       3.20864612      -2.51514531      -0.08445334        1 
H      -1.70040606      -1.98365680      -0.89564916        1 
H      -3.84865597      -1.18232146       0.04875537        1 
H      -2.88418655      -1.28637389       1.53085195        1 
H      -3.85999088       1.17109421       0.16676241        1 
H      -2.87925111       1.14226513       1.64128179        1 
H      -1.73152739       2.06042055      -0.73868164        1 
H       2.97390049       3.48383848       1.22061798        1 
H       3.25253774       2.35888733      -0.15365256        1 
H       2.05841430      -3.73805546      -0.66600031        1 
H       2.68596237      -3.83748793       1.01483154        1 
