29
Lattice="0.0 0.0 0.0 0.0 0.0 0.0 0.0 0.0 0.0" Properties=species:S:1:pos:R:3:Z:I:1 pbc="F F F"
C       0.32084252       1.05889773       0.29868417        6 
C       0.46246946      -0.41197973       0.84040867        6 
C      -1.04663450       1.48237199      -0.19781533        6 
C      -0.58200373      -1.38654340       0.28040530        6 
O      -1.91807041       1.52829468       0.82709690        8 
O      -1.32396486       1.74845530      -1.34702522        8 
O      -0.02882488      -2.53714333      -0.15094047        8 
O      -1.77596117      -1.18072133       0.23423388        8 
C      -0.94932229      -3.48568531      -0.71726445        6 
C      -3.29525049       1.69067392       0.45417656        6 
C       1.47069548       1.11880886      -0.74598591        6 
C       2.76031318       1.50299469      -0.00115225        6 
C       2.94165085       0.23348887       0.88796901        6 
C       1.87528814      -0.72164574       0.28689518        6 
O       1.72516045      -0.25973771      -1.06650243        8 
H       0.53998658       1.73029118       1.13705693        1 
H       0.38725270      -0.44088585       1.93213599        1 
H      -1.47906938      -3.03997503      -1.56328527        1 
H      -3.61606519       0.82317304      -0.12839598        1 
H       1.22384210       1.67193261      -1.65092217        1 
H       3.58361625       1.60694239      -0.71300750        1 
H       2.67604071       2.43137719       0.57239238        1 
H       3.94282398      -0.19373199       0.78917386        1 
H       2.76498544       0.42961797       1.95097758        1 
H       2.14049325      -1.77616574       0.28822459        1 
H      -0.33588364      -4.32543439      -1.04501607        1 
H      -1.67986490      -3.80795332       0.03030396        1 
H      -3.43646912       2.60241562      -0.13270955        1 
H      -3.84866382       1.74629681       1.39244865        1 
