29
Lattice="0.0 0.0 0.0 0.0 0.0 0.0 0.0 0.0 0.0" Properties=species:S:1:pos:R:3:Z:I:1 pbc="F F F"
C      -0.69344640       0.31825936      -0.62760426        6 
C       0.04648353      -1.05880538      -0.50408684        6 
C       0.08086753       1.54637727      -0.17812734        6 
C       1.42405795      -1.01910775       0.14672845        6 
O      -0.73093678       2.62808879      -0.20100106        8 
O       1.25563814       1.60645234       0.10896887        8 
O       2.39032656      -0.98978237      -0.79740744        8 
O       1.63898468      -1.10203471       1.33404129        8 
C       3.72241101      -0.83798725      -0.28141399        6 
C      -0.10964980       3.86823406       0.18184352        6 
C      -1.96987304       0.05287066       0.22601214        6 
C      -2.93274751      -0.87404711      -0.55087924        6 
C      -2.19674235      -2.24235357      -0.41441747        6 
C      -0.95535914      -1.82715639       0.40606203        6 
O      -1.47052192      -0.79506898       1.26106313        8 
H      -0.96790495       0.51760402      -1.66970657        1 
H       0.15318009      -1.51947998      -1.48883265        1 
H       3.97905283      -1.67109407       0.37930165        1 
H       0.71710550       4.10612576      -0.49337072        1 
H      -2.41509924       0.94987555       0.65424069        1 
H      -3.90878914      -0.89555477      -0.05893984        1 
H      -3.08281844      -0.56013409      -1.58865706        1 
H      -2.79716602      -2.96190731       0.14882459        1 
H      -1.93884100      -2.69553388      -1.37661105        1 
H      -0.49551769      -2.60415047       1.01479966        1 
H       4.37684478      -0.82258671      -1.15407396        1 
H       3.79765584       0.09961817       0.27618449        1 
H       0.27467455       3.80220542       1.20332505        1 
H      -0.89427219       4.62218861       0.11222065        1 
