29
Lattice="0.0 0.0 0.0 0.0 0.0 0.0 0.0 0.0 0.0" Properties=species:S:1:pos:R:3:Z:I:1 pbc="F F F"
C       0.48247451       0.86963958       0.37520584        6 
C       0.53481727      -0.59312253       0.88525569        6 
C      -0.82858600       1.59196506       0.15171344        6 
C      -0.49075429      -1.59469316       0.37284011        6 
O      -1.87211254       0.99943623       0.76169574        8 
O      -0.91386162       2.62347773      -0.48147801        8 
O      -1.19704247      -1.16772671      -0.68713776        8 
O      -0.60362294      -2.70365216       0.85392932        8 
C      -2.10269855      -2.12934885      -1.24944903        6 
C      -3.13697275       1.66074927       0.59567638        6 
C       1.50267875       0.85542723      -0.80945178        6 
C       2.89657954       1.12805433      -0.21572868        6 
C       3.06747973      -0.15385371       0.66006668        6 
C       1.86897879      -1.01554103       0.18086702        6 
O       1.61849683      -0.53636502      -1.15034878        8 
H       0.92520253       1.48313613       1.17372460        1 
H       0.57319188      -0.68184214       1.97215259        1 
H      -2.83398053      -2.44979876      -0.50196839        1 
H      -3.40661462       1.70328481      -0.46344567        1 
H       1.20367848       1.44161453      -1.67701592        1 
H       3.64136729       1.16129402      -1.01557385        1 
H       2.95492883       2.06033239       0.35416504        1 
H       4.01407769      -0.66167854       0.45891872        1 
H       3.01958336       0.05265896       1.73426019        1 
H       2.03551497      -2.09295927       0.16672183        1 
H      -2.59454359      -1.61763967      -2.07744762        1 
H      -1.55608381      -3.00553582      -1.60929667        1 
H      -3.09643335       2.67960834       0.99113177        1 
H      -3.85638833       1.05902497       1.15210468        1 
