29
Lattice="0.0 0.0 0.0 0.0 0.0 0.0 0.0 0.0 0.0" Properties=species:S:1:pos:R:3:Z:I:1 pbc="F F F"
C      -0.72712988       0.63014342       0.66933710        6 
C       0.80741527       0.35010688       0.71703534        6 
C      -1.58595813      -0.62316215       0.61741326        6 
C       1.22305363      -0.96910912       0.08674416        6 
O      -2.40595565      -0.65426797      -0.44985785        8 
O      -1.58809916      -1.45165497       1.50161208        8 
O       2.55731588      -1.14254295       0.22581727        8 
O       0.51300963      -1.73707368      -0.52256794        8 
C       3.08396167      -2.32968834      -0.39361385        6 
C      -3.18821661      -1.85326969      -0.57575993        6 
C      -0.81975823       1.66407267      -0.49078911        6 
C      -0.48852246       3.05742784       0.07903242        6 
C       1.02884624       2.87946245       0.39465639        6 
C       1.30400839       1.48760888      -0.22791002        6 
O       0.34690559       1.39537235      -1.29012818        8 
H      -1.01328154       1.10082325       1.61617464        1 
H       1.23115562       0.41972758       1.72144984        1 
H       2.89986071      -2.31179874      -1.47155129        1 
H      -3.83282859      -1.98741648       0.29751745        1 
H      -1.71377826       1.58616536      -1.10547354        1 
H      -0.64367400       3.81913780      -0.68983402        1 
H      -1.08859157       3.32443982       0.95433581        1 
H       1.63668764       3.64485227      -0.09504393        1 
H       1.25303875       2.90681675       1.46589528        1 
H       2.31108612       1.33383658      -0.61556273        1 
H       4.15410613      -2.31982139      -0.18428177        1 
H       2.61530628      -3.22207754       0.03063636        1 
H      -2.52670531      -2.71855673      -0.67037715        1 
H      -3.78387376      -1.72138366      -1.47986617        1 
