29
Lattice="0.0 0.0 0.0 0.0 0.0 0.0 0.0 0.0 0.0" Properties=species:S:1:pos:R:3:Z:I:1 pbc="F F F"
C      -0.89398398       0.51178825      -0.79047207        6 
C      -0.10702813      -0.80645545      -0.52385337        6 
C      -0.22903008       1.82995882      -0.42286343        6 
C       1.40248772      -0.70970063      -0.40247147        6 
O       0.38855464       1.78857775       0.76992673        8 
O      -0.30300353       2.82329690      -1.11525806        8 
O       1.90090387      -1.90604604      -0.00935848        8 
O       2.10001734       0.22461414      -0.72766048        8 
C       3.33590331      -1.98044282       0.05498392        6 
C       1.11636130       2.97473103       1.11912979        6 
C      -2.10425638       0.26921631       0.17273202        6 
C      -2.98374685      -0.89685232      -0.34845169        6 
C      -2.14822019      -2.13353783       0.10937779        6 
C      -0.89458495      -1.43007314       0.67024687        6 
O      -1.46559454      -0.29242435       1.32563165        8 
H      -1.20612137       0.60868446      -1.83102876        1 
H      -0.23199050      -1.46222591      -1.39543982        1 
H       3.72617195      -1.24685806       0.76597353        1 
H       0.45990029       3.84908405       1.11698030        1 
H      -2.64416164       1.17461300       0.45318588        1 
H      -3.96638211      -0.87709286       0.13010801        1 
H      -3.13600189      -0.85351712      -1.43141354        1 
H      -2.65587853      -2.67765495       0.91047078        1 
H      -1.92674010      -2.83730053      -0.69871865        1 
H      -0.28775339      -2.00428308       1.36875368        1 
H       3.56213499      -2.99468467       0.38554677        1 
H       3.77307906      -1.78680565      -0.92858548        1 
H       1.93048787       3.13264139       0.40598124        1 
H       1.51210982       2.79120879       2.11865169        1 
