29
Lattice="0.0 0.0 0.0 0.0 0.0 0.0 0.0 0.0 0.0" Properties=species:S:1:pos:R:3:Z:I:1 pbc="F F F"
C       0.78702737      -0.77406660      -0.70422569        6 
C       0.42403775       0.75367993      -0.69839104        6 
C      -0.33298873      -1.75023224      -0.39437561        6 
C      -1.06206449       1.04590887      -0.55491542        6 
O      -0.95873612      -1.45410256       0.76375294        8 
O      -0.59425476      -2.71763607      -1.07510109        8 
O      -1.30135479       2.12863999       0.21076289        8 
O      -1.93321575       0.43399798      -1.13508377        8 
C      -2.68958406       2.48089905       0.35001904        6 
C      -2.09837235      -2.27348780       1.06539675        6 
C       1.87212427      -0.79386554       0.42107735        6 
C       3.18146130      -0.17139510      -0.11477128        6 
C       2.80984370       1.34296267      -0.10918103        6 
C       1.35706083       1.28810621       0.41932464        6 
O       1.40033193       0.19315202       1.34406189        8 
H       1.19430242      -1.08829409      -1.66593374        1 
H       0.68931493       1.19135817      -1.66862561        1 
H      -3.24789732       1.65133603       0.79240400        1 
H      -1.81870045      -3.32976094       1.10297982        1 
H       1.97695726      -1.75307208       0.92951465        1 
H       4.00679403      -0.38183287       0.57063587        1 
H       3.45593578      -0.54973280      -1.10395309        1 
H       3.44001779       1.90442056       0.58573942        1 
H       2.88941095       1.81314955      -1.09433560        1 
H       0.99762612       2.18388148       0.92116445        1 
H      -2.70594185       3.35141842       1.00625841        1 
H      -3.12438506       2.72019876      -0.62440316        1 
H      -2.86848685      -2.13185321       0.30159978        1 
H      -2.45373183      -1.93333340       2.03887657        1 
