29
Lattice="0.0 0.0 0.0 0.0 0.0 0.0 0.0 0.0 0.0" Properties=species:S:1:pos:R:3:Z:I:1 pbc="F F F"
C       0.56869879      -0.76621247      -0.61606882        6 
C       0.56160650       0.81275163      -0.49371131        6 
C      -0.58333338      -1.46515740       0.09402496        6 
C      -0.70433842       1.37469398       0.11939507        6 
O      -1.72407382      -1.35074971      -0.62583987        8 
O      -0.51035958      -2.07841377       1.13347265        8 
O      -1.63979759       1.58818588      -0.83171089        8 
O      -0.88474455       1.57893428       1.29960854        8 
C      -2.92639461       1.99570469      -0.34096884        6 
C      -2.88495128      -1.95079583      -0.02498435        6 
C       1.90727233      -1.08246958       0.09448732        6 
C       3.09756116      -0.61265667      -0.77691436        6 
C       3.07777118       0.92439970      -0.50975243        6 
C       1.82300101       1.04166716       0.38119364        6 
O       1.89859478      -0.14435477       1.17771611        8 
H       0.54345614      -1.06365222      -1.66788434        1 
H       0.66777322       1.24940521      -1.49004156        1 
H      -2.84821006       2.92577891       0.22881553        1 
H      -3.07564818      -1.51154629       0.95833819        1 
H       1.96687854      -2.09481356       0.49120164        1 
H       4.02784413      -1.06975203      -0.42974033        1 
H       2.97059831      -0.86783838      -1.83423274        1 
H       3.96062713       1.24024009       0.05237356        1 
H       3.02124744       1.52640532      -1.42206306        1 
H       1.76247829       1.91523600       1.02941677        1 
H      -3.54827345       2.13594136      -1.22576281        1 
H      -3.34787628       1.21997656       0.30548938        1 
H      -2.74387056      -3.02912143       0.09215187        1 
H      -3.70875314      -1.74270393      -0.70875814        1 
