29
Lattice="0.0 0.0 0.0 0.0 0.0 0.0 0.0 0.0 0.0" Properties=species:S:1:pos:R:3:Z:I:1 pbc="F F F"
C      -0.69483066       0.60587683      -0.77511484        6 
C      -0.33393659      -0.89986124      -0.47467531        6 
C       0.33150321       1.70498481      -0.57138999        6 
C       1.02930583      -1.22387905       0.12135588        6 
O       1.02767041       1.57115986       0.56612540        8 
O       0.46064447       2.63787968      -1.33844342        8 
O       1.81439244      -1.80941518      -0.81975216        8 
O       1.35740023      -1.11352665       1.27916265        8 
C       3.11390141      -2.21425608      -0.35931095        6 
C       1.97628230       2.61287988       0.84582448        6 
C      -1.91941185       0.80452308       0.18155840        6 
C      -3.15614042       0.10775496      -0.43004310        6 
C      -2.80683802      -1.38799454      -0.15911691        6 
C      -1.44818226      -1.24713056       0.56311174        6 
O      -1.59788086      -0.02611111       1.29480040        8 
H      -1.00251482       0.71130985      -1.81712266        1 
H      -0.43293604      -1.48325192      -1.39235256        1 
H       3.02345119      -2.95738735       0.43830513        1 
H       1.46640121       3.57435556       0.95557853        1 
H      -2.07137227       1.83253483       0.51347227        1 
H      -4.05986396       0.40915865       0.10629344        1 
H      -3.29384895       0.33933019      -1.49022303        1 
H      -3.53913203      -1.85305394       0.50654371        1 
H      -2.74604294      -1.99209940      -1.06947815        1 
H      -1.18582231      -2.05109081       1.25011614        1 
H       3.61480847      -2.64079779      -1.22918222        1 
H       3.67141352      -1.35475395       0.02404573        1 
H       2.70870159       2.69245023       0.03722708        1 
H       2.45751147       2.32003472       1.77879502        1 
