29
Lattice="0.0 0.0 0.0 0.0 0.0 0.0 0.0 0.0 0.0" Properties=species:S:1:pos:R:3:Z:I:1 pbc="F F F"
C      -0.21523608       0.81949776       0.44848536        6 
C       0.94098920      -0.15509475       0.84978701        6 
C      -1.58786249       0.24018401       0.15702965        6 
C       0.74548273      -1.64292221       0.58976632        6 
O      -2.51501260       1.21437454       0.33989926        8 
O      -1.88090994      -0.89102757      -0.15719085        8 
O       0.60367931      -1.93165355      -0.71181483        8 
O       0.73972201      -2.47208313       1.47648468        8 
C       0.25427249      -3.29205613      -1.00237301        6 
C      -3.87338658       0.82129439       0.07863533        6 
C       0.42999468       1.61561487      -0.73798080        6 
C       1.34231099       2.70943356      -0.14432929        6 
C       2.49390109       1.82895069       0.43519972        6 
C       2.07381831       0.42119285      -0.05993741        6 
O       1.37709251       0.69929946      -1.28246541        8 
H      -0.38270117       1.51393356       1.27640393        1 
H       1.17402289      -0.06896313       1.91225819        1 
H      -0.72002726      -3.52114475      -0.56228950        1 
H      -4.17021092       0.00600099       0.74447813        1 
H      -0.26915196       1.93976151      -1.50971368        1 
H       1.70694741       3.35730066      -0.94611738        1 
H       0.84573596       3.33426051       0.60385153        1 
H       3.46317432       2.10956306       0.01517406        1 
H       2.56984972       1.88110196       1.52565140        1 
H       2.89050785      -0.27352706      -0.25777136        1 
H       0.20690644      -3.35412907      -2.09014813        1 
H       1.00411094      -3.98306776      -0.60699409        1 
H      -3.98667391       0.48883934      -0.95730028        1 
H      -4.47675589       1.71034153       0.26529707        1 
