29
Lattice="0.0 0.0 0.0 0.0 0.0 0.0 0.0 0.0 0.0" Properties=species:S:1:pos:R:3:Z:I:1 pbc="F F F"
C       0.72642920      -0.79003672      -0.62833262        6 
C       0.53601158       0.76556024      -0.77671238        6 
C      -0.42549675      -1.71568164      -0.27435931        6 
C      -0.88453619       1.29926188      -0.67707125        6 
O      -1.53567982      -1.10480403       0.16905339        8 
O      -0.31156140      -2.92181323      -0.35169528        8 
O      -1.21752726       1.66506108       0.57580817        8 
O      -1.62618620       1.40669124      -1.63006711        8 
C      -2.57558572       2.09383033       0.73926814        6 
C      -2.61668193      -1.97876633       0.53802321        6 
C       1.78546899      -0.83960167       0.52194940        6 
C       3.16482911      -0.40174850      -0.01878255        6 
C       2.95893986       1.13937096      -0.13232231        6 
C       1.49421465       1.27534025       0.33992554        6 
O       1.39063140       0.25759057       1.34777843        8 
H       1.14230748      -1.21522634      -1.54505650        1 
H       0.87489276       1.06802285      -1.77072874        1 
H      -3.26052922       1.29460484       0.44083196        1 
H      -2.30660005      -2.64779851       1.34515768        1 
H       1.77240329      -1.76880318       1.09193694        1 
H       3.94728737      -0.64855721       0.70370596        1 
H       3.41564682      -0.88213425      -0.96888259        1 
H       3.62343081       1.67948205       0.54737161        1 
H       3.11776640       1.52661895      -1.14328520        1 
H       1.21898587       2.23882019       0.76540967        1 
H      -2.68661846       2.32106865       1.80012016        1 
H      -2.78145669       2.97898444       0.13006974        1 
H      -2.93291101      -2.57736064      -0.32030508        1 
H      -3.42171174      -1.32204959       0.86833587        1 
