29
Lattice="0.0 0.0 0.0 0.0 0.0 0.0 0.0 0.0 0.0" Properties=species:S:1:pos:R:3:Z:I:1 pbc="F F F"
C      -0.82979876       0.43923647      -0.83797307        6 
C      -0.11517331      -0.92763828      -0.53220521        6 
C       0.09195570       1.64158322      -0.69171705        6 
C       1.29407647      -0.82627827       0.01576528        6 
O      -0.11048528       2.32483824       0.44486110        8 
O       0.92233797       1.93224871      -1.52688376        8 
O       2.03363681      -1.87681282      -0.40627188        8 
O       1.71146254       0.02146815       0.77389098        8 
C       3.37403336      -1.92428246       0.11363152        6 
C       0.86429523       3.34379453       0.71943556        6 
C      -2.02458150       0.37234982       0.15294013        6 
C      -3.08260043      -0.62009771      -0.38029991        6 
C      -2.38067261      -1.98346433      -0.09684349        6 
C      -1.06983691      -1.50148461       0.56625410        6 
O      -1.47260412      -0.33213143       1.27653827        8 
H      -1.15859180       0.44826080      -1.88064092        1 
H      -0.09263893      -1.57368470      -1.41145916        1 
H       3.35979191      -1.96994481       1.20633400        1 
H       0.88354423       4.08954776      -0.08043329        1 
H      -2.39832194       1.34153647       0.47807192        1 
H      -4.00910880      -0.52380052       0.19227518        1 
H      -3.31884756      -0.46489612      -1.43745790        1 
H      -2.95619355      -2.59012904       0.60759138        1 
H      -2.20563947      -2.58032384      -0.99687431        1 
H      -0.59864295      -2.20886594       1.25043593        1 
H       3.81911542      -2.82729384      -0.30529308        1 
H       3.93365135      -1.03731799      -0.19590047        1 
H       1.85115427       2.88309774       0.81220156        1 
H       0.55763379       3.79502738       1.66342326        1 
