29
Lattice="0.0 0.0 0.0 0.0 0.0 0.0 0.0 0.0 0.0" Properties=species:S:1:pos:R:3:Z:I:1 pbc="F F F"
C       0.66331017      -0.84357377      -0.59002596        6 
C       0.55762413       0.71455421      -0.78586674        6 
C      -0.53346909      -1.69330635      -0.18761150        6 
C      -0.80855105       1.36173275      -0.62253500        6 
O      -1.70777244      -1.04495270      -0.15292873        8 
O      -0.41439436      -2.87315089       0.07095991        8 
O      -1.11129012       1.59933942       0.67000994        8 
O      -1.52298833       1.67450999      -1.55000348        8 
C      -2.41542379       2.14999548       0.89454723        6 
C      -2.84748823      -1.84171302       0.21541083        6 
C       1.76560398      -0.93068651       0.50862924        6 
C       3.14603724      -0.59401990      -0.09619179        6 
C       3.02756872       0.95218601      -0.25929883        6 
C       1.59829744       1.19343179       0.27343327        6 
O       1.47699334       0.21523228       1.31627696        8 
H       1.01513857      -1.31063444      -1.51614515        1 
H       0.86701638       0.97192369      -1.80124703        1 
H      -3.18291073       1.46432051       0.52267451        1 
H      -2.71901319      -2.24284392       1.22434244        1 
H       1.71364883      -1.84109760       1.10436043        1 
H       3.93780193      -0.86169915       0.60844354        1 
H       3.33783983      -1.11896738      -1.03691238        1 
H       3.75537620       1.47579215       0.36632648        1 
H       3.15892907       1.29306028      -1.29082790        1 
H       1.40282293       2.18476307       0.68014681        1 
H      -2.50098715       2.27344753       1.97476512        1 
H      -2.52666492       3.11157518       0.38484514        1 
H      -2.97626157      -2.67103659      -0.48498071        1 
H      -3.70067769      -1.16444820       0.17257148        1 
