29
Lattice="0.0 0.0 0.0 0.0 0.0 0.0 0.0 0.0 0.0" Properties=species:S:1:pos:R:3:Z:I:1 pbc="F F F"
C      -0.44474141      -0.78064591       0.64347037        6 
C      -0.76931265       0.74431378       0.76732464        6 
C       1.02961143      -1.14110335       0.69033808        6 
C       0.24318458       1.76143975       0.25592817        6 
O       1.43990450      -1.82681367      -0.39610082        8 
O       1.73730720      -0.90257014       1.64431128        8 
O       1.33158731       1.22217700      -0.31624174        8 
O       0.04719481       2.95623201       0.33259109        8 
C       2.27584525       2.16031177      -0.85910490        6 
C       2.83209069      -2.17996965      -0.39698803        6 
C      -1.29263489      -1.17840635      -0.60333793        6 
C      -2.73274311      -1.45652587      -0.12934012        6 
C      -3.17205769      -0.01911820       0.28550603        6 
C      -1.97359265       0.82185744      -0.21894498        6 
O      -1.45978202       0.05733380      -1.32111903        8 
H      -0.84675523      -1.27273479       1.53669044        1 
H      -1.03468816       1.04232896       1.78401882        1 
H       2.64635247       2.82486663      -0.07422758        1 
H       3.07067250      -2.81325457       0.46205686        1 
H      -0.83840803      -1.92487987      -1.25114629        1 
H      -3.33277337      -1.82544603      -0.96564396        1 
H      -2.79037106      -2.18502539       0.68550325        1 
H      -4.09298296       0.28422175      -0.21890938        1 
H      -3.32688192       0.08953004       1.36365891        1 
H      -2.20744553       1.83702854      -0.53890862        1 
H       3.08515329       1.55466998      -1.26757566        1 
H       1.80559047       2.75885804      -1.64386986        1 
H       3.44896789      -1.27785956      -0.35279301        1 
H       2.99930715      -2.71635474      -1.33173433        1 
