29
Lattice="0.0 0.0 0.0 0.0 0.0 0.0 0.0 0.0 0.0" Properties=species:S:1:pos:R:3:Z:I:1 pbc="F F F"
C      -0.61673268       0.86361925      -0.62650134        6 
C      -0.49446646      -0.69582477      -0.80991088        6 
C       0.69711637       1.62154147      -0.53046546        6 
C       0.86410077      -1.26289429      -0.39546842        6 
O       1.09213506       1.78559805       0.74941002        8 
O       1.27449522       2.08908795      -1.48556864        8 
O       0.74816238      -2.46425562       0.20538646        8 
O       1.93349853      -0.73087994      -0.59961708        8 
C       1.98888270      -3.06870315       0.61092523        6 
C       2.38321059       2.39600218       0.90515271        6 
C      -1.58330261       0.94104746       0.59430435        6 
C      -3.02732077       0.79747457       0.07621729        6 
C      -3.01209441      -0.69283881      -0.37982607        6 
C      -1.62808685      -1.15686717       0.14103295        6 
O      -1.38813579      -0.30879377       1.27479042        8 
H      -1.09202951       1.27606404      -1.52020909        1 
H      -0.65712237      -0.98572728      -1.85381162        1 
H       2.51943985      -2.41467473       1.30790679        1 
H       2.39743938       3.39122359       0.45181561        1 
H      -1.39130334       1.76586106       1.27845633        1 
H      -3.73230484       0.95194697       0.89783055        1 
H      -3.27470620       1.49947686      -0.72574149        1 
H      -3.81241544      -1.26883917       0.09203647        1 
H      -3.10733897      -0.81047952      -1.46412581        1 
H      -1.56697409      -2.20011832       0.44141110        1 
H       1.71185584      -4.00571128       1.09477517        1 
H       2.62694410      -3.25521919      -0.25757296        1 
H       3.14515085       1.77284161       0.42894779        1 
H       2.55099325       2.45921369       1.98107453        1 
