29
Lattice="0.0 0.0 0.0 0.0 0.0 0.0 0.0 0.0 0.0" Properties=species:S:1:pos:R:3:Z:I:1 pbc="F F F"
C      -0.49733862       0.35362323      -0.81648228        6 
C      -0.10387327      -1.07672722      -0.33218142        6 
C       0.27450623       1.48535958      -0.12428767        6 
C       1.33263279      -1.35254169       0.06538994        6 
O      -0.45477326       2.62360661      -0.11674341        8 
O       1.36375003       1.40893811       0.39872776        8 
O       2.18301601      -0.87570673      -0.86371968        8 
O       1.67216995      -1.96446112       1.05452391        8 
C       3.57282666      -0.94912583      -0.51240932        6 
C       0.16493468       3.74182932       0.54121875        6 
C      -1.95603299       0.37038156      -0.26575471        6 
C      -2.82252602      -0.75930179      -0.88378283        6 
C      -2.40501931      -1.98528078      -0.01473050        6 
C      -1.19885662      -1.38205464       0.72616292        6 
O      -1.71198537      -0.08287974       1.07869958        8 
H      -0.42456058       0.47395432      -1.90133211        1 
H      -0.24927321      -1.74177367      -1.19536821        1 
H       3.86837096      -1.98004977      -0.29888929        1 
H       1.10699678       4.00271540       0.05074030        1 
H      -2.41780005       1.35444383      -0.24574772        1 
H      -3.88619447      -0.52976267      -0.78036413        1 
H      -2.61357976      -0.90169460      -1.94947786        1 
H      -3.18892310      -2.24642599       0.70157254        1 
H      -2.15915625      -2.87639183      -0.60043395        1 
H      -0.83770965      -1.90226451       1.61169708        1 
H       4.11518881      -0.56364206      -1.37668285        1 
H       3.76013821      -0.32613052       0.36646171        1 
H       0.36450187       3.50239867       1.58901738        1 
H      -0.55099990       4.56045641       0.46075429        1 
