29
Lattice="0.0 0.0 0.0 0.0 0.0 0.0 0.0 0.0 0.0" Properties=species:S:1:pos:R:3:Z:I:1 pbc="F F F"
C      -0.60712840      -0.92986122       0.58838025        6 
C      -0.59958128       0.63658154       0.77247220        6 
C       0.63699516      -1.61000039       0.02320488        6 
C       0.73545198       1.34355908       0.62042699        6 
O       1.77859511      -1.04157456       0.45026397        8 
O       0.60705854      -2.59025853      -0.68882191        8 
O       1.03286710       1.57521506      -0.67699735        8 
O       1.42129881       1.71728254       1.54562160        8 
C       2.30085237       2.20548881      -0.90593344        6 
C       2.99201570      -1.64043913      -0.03581914        6 
C      -1.79014050      -1.09567586      -0.39721503        6 
C      -3.12963630      -0.76392387       0.29959199        6 
C      -3.08027154       0.79421886       0.32497017        6 
C      -1.68224120       1.04431339      -0.27660897        6 
O      -1.58749349       0.02147804      -1.27625325        8 
H      -0.79970759      -1.41890131       1.55065422        1 
H      -0.92353946       0.87646215       1.78754234        1 
H       3.10978984       1.58368949      -0.51044166        1 
H       3.03160178      -1.58056372      -1.12700989        1 
H      -1.75643850      -2.02545319      -0.96188052        1 
H      -3.96897580      -1.12932810      -0.29783817        1 
H      -3.20698776      -1.20926527       1.29670292        1 
H      -3.84651550       1.22577406      -0.32490797        1 
H      -3.20207167       1.21976728       1.32575127        1 
H      -1.52469617       2.02020759      -0.73432307        1 
H       2.38790142       2.30770064      -1.98822459        1 
H       2.34076283       3.18467764      -0.42004299        1 
H       3.04866433      -2.68982509       0.26556630        1 
H       3.79951178      -1.06349011       0.41542216        1 
