29
Lattice="0.0 0.0 0.0 0.0 0.0 0.0 0.0 0.0 0.0" Properties=species:S:1:pos:R:3:Z:I:1 pbc="F F F"
C      -0.41915785      -0.83464834       0.49460952        6 
C      -0.68914043       0.70796090       0.65406779        6 
C       0.89576334      -1.23363305      -0.15234381        6 
C       0.37748897       1.70794734       0.22726769        6 
O       1.75045970      -1.73303038       0.77001159        8 
O       1.14012362      -1.18457868      -1.33676137        8 
O       1.62665899       1.21447173       0.30203420        8 
O       0.12707370       2.84588054      -0.10748645        8 
C       2.67114402       2.10043672      -0.13732104        6 
C       3.03459204      -2.11482418       0.25541948        6 
C      -1.61036259      -1.21722221      -0.44044451        6 
C      -2.92061747      -1.25611638       0.37583135        6 
C      -3.18660235       0.26764965       0.57771332        6 
C      -1.98613716       0.87763582      -0.18079104        6 
O      -1.77622550      -0.04894542      -1.25193270        8 
H      -0.48234013      -1.33033242       1.46555191        1 
H      -0.87539475       0.93616434       1.71075746        1 
H       2.65875549       3.02585750       0.44407348        1 
H       3.54666384      -1.24549085      -0.16822780        1 
H      -1.41717853      -2.07799844      -1.08013433        1 
H      -3.71386864      -1.72148023      -0.21550198        1 
H      -2.82605657      -1.81174781       1.31387224        1 
H      -4.12333629       0.57410895       0.10513564        1 
H      -3.22261727       0.56832527       1.62941508        1 
H      -2.12159883       1.88461872      -0.57179619        1 
H       3.60116052       1.55382845       0.02074877        1 
H       2.53908270       2.33812557      -1.19608529        1 
H       2.92952197      -2.87494862      -0.52398473        1 
H       3.58915945      -2.50970891       1.10759705        1 
