29
Lattice="0.0 0.0 0.0 0.0 0.0 0.0 0.0 0.0 0.0" Properties=species:S:1:pos:R:3:Z:I:1 pbc="F F F"
C       0.82964057      -0.56003000      -0.56327202        6 
C       0.13269282       0.83919794      -0.58032241        6 
C       0.08534430      -1.87755320      -0.43562853        6 
C      -1.22274293       1.01998521       0.08710214        6 
O      -1.12381270      -1.80370362       0.13404446        8 
O       0.59814498      -2.92082297      -0.79094830        8 
O      -2.01685368       1.78259624      -0.71334801        8 
O      -1.53893878       0.69014849       1.20444764        8 
C      -3.29126887       2.12432921      -0.14570532        6 
C      -1.80843812      -3.05632580       0.30300928        6 
C       1.93741884      -0.35565944       0.53325110        6 
C       3.14160000       0.33612520      -0.13545113        6 
C       2.52779105       1.74206759      -0.41927303        6 
C       1.16128484       1.62589684       0.30597846        6 
O       1.41561457       0.68929961       1.35592879        8 
H       1.33483179      -0.68068248      -1.52589572        1 
H       0.07442041       1.23550329      -1.59534930        1 
H      -3.16147728       2.68784332       0.78301463        1 
H      -1.22255511      -3.72781391       0.93650508        1 
H       2.15679662      -1.23806938       1.13416652        1 
H       3.96963274       0.40278331       0.57565687        1 
H       3.49569628      -0.18080468      -1.03175548        1 
H       3.12845010       2.54163490       0.02205367        1 
H       2.41404050       1.95590652      -1.48654741        1 
H       0.77313017       2.55403914       0.72742234        1 
H      -3.79600748       2.73176540      -0.89815692        1 
H      -3.86985518       1.22158934       0.07175234        1 
H      -1.97376087      -3.53759258      -0.66525460        1 
H      -2.75598402      -2.80433326       0.77944926        1 
