29
Lattice="0.0 0.0 0.0 0.0 0.0 0.0 0.0 0.0 0.0" Properties=species:S:1:pos:R:3:Z:I:1 pbc="F F F"
C      -0.76949019      -0.39521013      -0.65608184        6 
C       0.76840193      -0.35176275      -0.48123650        6 
C      -1.53332695       0.69834473       0.07274286        6 
C       1.40416218       1.01510192      -0.32398110        6 
O      -2.73590328       0.88683426      -0.52585846        8 
O      -1.20475842       1.23726648       1.10227843        8 
O       2.71656432       0.87599770      -0.01662919        8 
O       0.89290431       2.07688585      -0.59607674        8 
C       3.45555614       2.10735612       0.06147084        6 
C      -3.60200149       1.82041131       0.14023356        6 
C      -1.05746806      -1.72131634       0.12707782        6 
C      -0.40534230      -2.93270878      -0.59229191        6 
C       1.07523915      -2.81066143      -0.11133591        6 
C       1.01577227      -1.44673987       0.60587822        6 
O      -0.24173545      -1.54411713       1.28960062        8 
H      -1.08682846      -0.44227840      -1.69895590        1 
H       1.22164199      -0.70564413      -1.41701462        1 
H       3.02853366       2.76207200       0.82607343        1 
H      -3.13772872       2.80971870       0.18254497        1 
H      -2.10025540      -1.85255912       0.41931538        1 
H      -0.86197657      -3.86933550      -0.26207265        1 
H      -0.50876294      -2.87209929      -1.68027715        1 
H       1.32196884      -3.59621929       0.60791287        1 
H       1.80503318      -2.84453295      -0.92627394        1 
H       1.81488106      -1.22674366       1.31182115        1 
H       4.47486410       1.82186276       0.32394785        1 
H       3.43444642       2.62736951      -0.90056192        1 
H      -3.81459690       1.48694588       1.16025992        1 
H      -4.51622846       1.84948415      -0.45423765        1 
