29
Lattice="0.0 0.0 0.0 0.0 0.0 0.0 0.0 0.0 0.0" Properties=species:S:1:pos:R:3:Z:I:1 pbc="F F F"
C      -0.54987594       0.68045933      -0.85202116        6 
C      -0.57528120      -0.82569253      -0.44729069        6 
C       0.64211688       1.55824636      -0.50044282        6 
C       0.66863623      -1.67953813      -0.27683997        6 
O       1.09964341       1.37170921       0.74760478        8 
O       1.09713811       2.38196933      -1.26840730        8 
O       1.83516290      -1.01622693      -0.23973315        8 
O       0.58443651      -2.88612419      -0.16200441        8 
C       3.00311596      -1.84060474      -0.07877734        6 
C       2.24519466       2.15857026       1.09953700        6 
C      -1.76820587       1.16120238       0.01211441        6 
C      -3.08413972       0.49958275      -0.47824119        6 
C      -2.99824734      -0.89893234       0.20937666        6 
C      -1.56467972      -0.83294135       0.77180470        6 
O      -1.51368110       0.50957347       1.26243373        8 
H      -0.71894028       0.81853963      -1.92097597        1 
H      -1.07734535      -1.35569902      -1.26465806        1 
H       3.07694257      -2.56706626      -0.89262933        1 
H       2.02583100       3.22677584       1.01629414        1 
H      -1.81488435       2.24096907       0.16082481        1 
H      -3.95185276       1.06769275      -0.13341188        1 
H      -3.13471110       0.43839932      -1.56994458        1 
H      -3.71392706      -0.97876059       1.03230414        1 
H      -3.16166575      -1.73684097      -0.47424354        1 
H      -1.31574736      -1.54058612       1.56195957        1 
H       3.84871957      -1.15261870      -0.09640311        1 
H       2.95937026      -2.37789288       0.87250778        1 
H       3.08617475       1.91883905       0.44155477        1 
H       2.47617818       1.89216908       2.13147930        1 
