29
Lattice="0.0 0.0 0.0 0.0 0.0 0.0 0.0 0.0 0.0" Properties=species:S:1:pos:R:3:Z:I:1 pbc="F F F"
C      -0.01322214      -0.96783794       0.59120759        6 
C      -0.70924294       0.43049592       0.49317958        6 
C       1.34115814      -1.10677744      -0.10035977        6 
C       0.14614617       1.60039595       0.05122190        6 
O       2.33019479      -1.15054802       0.82599566        8 
O       1.52262695      -1.29066773      -1.27975369        8 
O      -0.41990234       2.75483081       0.48066338        8 
O       1.18587508       1.56403439      -0.56690804        8 
C       0.27251459       3.95415109       0.09221664        6 
C       3.65432101      -1.25628371       0.27722584        6 
C      -1.05807004      -1.82429896      -0.18666610        6 
C      -2.36898379      -1.94703904       0.63012744        6 
C      -3.02559089      -0.55753656       0.36199176        6 
C      -1.91072049       0.12150617      -0.46261166        6 
O      -1.42498087      -0.95108048      -1.26453048        8 
H       0.09890146      -1.27037204       1.63420678        1 
H      -1.10142928       0.71052009       1.47467965        1 
H       0.34123742       4.02331647      -0.99713506        1 
H       3.85796694      -0.40570493      -0.37924795        1 
H      -0.66097461      -2.75253345      -0.59576236        1 
H      -2.98462046      -2.76299581       0.24297308        1 
H      -2.18368215      -2.13686384       1.69202288        1 
H      -3.92741333      -0.65590118      -0.24867827        1 
H      -3.28687707      -0.01007708       1.27261371        1 
H      -2.22101183       0.95525754      -1.09344691        1 
H      -0.31883010       4.77741503       0.49440689        1 
H       1.28316860       3.96451931       0.51036060        1 
H       3.75999728      -2.18104247      -0.29756130        1 
H       4.32966050      -1.25553958       1.13394757        1 
