29
Lattice="0.0 0.0 0.0 0.0 0.0 0.0 0.0 0.0 0.0" Properties=species:S:1:pos:R:3:Z:I:1 pbc="F F F"
C      -0.56990800       0.70152593      -0.82468901        6 
C      -0.74003277      -0.85696547      -0.63112748        6 
C       0.87564980       1.15310765      -0.67020238        6 
C       0.54284726      -1.63031924      -0.40355988        6 
O       1.08128444       1.92594234       0.40985013        8 
O       1.75091022       0.83857753      -1.44985456        8 
O       1.16440233      -1.24365115       0.73267079        8 
O       0.94813252      -2.51340361      -1.12564835        8 
C       2.43863576      -1.86450438       0.96832178        6 
C       2.44748741       2.31219710       0.62967946        6 
C      -1.55688408       1.22960150       0.24482052        6 
C      -3.01373947       0.96101541      -0.20574359        6 
C      -3.14254485      -0.56630491       0.08528166        6 
C      -1.71649366      -0.88133075       0.58729784        6 
O      -1.37261523       0.29754137       1.31990012        8 
H      -0.85991980       0.97748615      -1.84280577        1 
H      -1.19404390      -1.30531654      -1.51611911        1 
H       3.12710709      -1.62019924       0.15433301        1 
H       2.82989861       2.88285467      -0.22124607        1 
H      -1.34761614       2.23885918       0.59439525        1 
H      -3.71124589       1.54282430       0.40258134        1 
H      -3.18456445       1.21850795      -1.25578241        1 
H      -3.86887302      -0.75846704       0.87963600        1 
H      -3.42886111      -1.15667988      -0.79010046        1 
H      -1.61896065      -1.75658432       1.23024357        1 
H       2.79360290      -1.45235698       1.91373336        1 
H       2.33340491      -2.95071405       1.03540501        1 
H       3.07016817       1.42416248       0.77015921        1 
H       2.43694361       2.92261467       1.53298463        1 
