29
Lattice="0.0 0.0 0.0 0.0 0.0 0.0 0.0 0.0 0.0" Properties=species:S:1:pos:R:3:Z:I:1 pbc="F F F"
C      -0.19389744      -0.78544279       0.51590625        6 
C      -0.81662677       0.59902394       0.83830091        6 
C       1.31591879      -0.90726200       0.56522096        6 
C      -0.15334225       1.85334137       0.26861507        6 
O       1.75320352      -1.89203703      -0.25381872        8 
O       2.02864549      -0.32593682       1.35136996        8 
O       1.02083756       1.64038673      -0.34198660        8 
O      -0.67326594       2.94633262       0.36068078        8 
C       1.62526165       2.80025654      -0.93777305        6 
C       3.16194819      -2.16795454      -0.17085247        6 
C      -0.99516392      -1.21517533      -0.75576401        6 
C      -2.26995876      -1.93154792      -0.27398380        6 
C      -2.98832253      -0.74332340       0.43958395        6 
C      -2.11933926       0.45959478      -0.00974443        6 
O      -1.54551986       0.01683956      -1.25580820        8 
H      -0.48431952      -1.45777258       1.33594995        1 
H      -0.99702379       0.76215122       1.90301795        1 
H       1.82171602       3.55963391      -0.17654884        1 
H       3.43248127      -2.47955968       0.84215760        1 
H      -0.41078531      -1.70853068      -1.53000157        1 
H      -2.84656452      -2.27950866      -1.13524331        1 
H      -2.07408003      -2.78518912       0.38244149        1 
H      -4.01895741      -0.62533720       0.09518302        1 
H      -3.01007573      -0.84983460       1.52916972        1 
H      -2.64586636       1.40183918      -0.15313581        1 
H       2.55667409       2.44709348      -1.38093697        1 
H       0.96627673       3.22184701      -1.70185253        1 
H       3.74204592      -1.27858758      -0.43219258        1 
H       3.34650692      -2.97181862      -0.88434266        1 
