29
Lattice="0.0 0.0 0.0 0.0 0.0 0.0 0.0 0.0 0.0" Properties=species:S:1:pos:R:3:Z:I:1 pbc="F F F"
C       0.45601162      -0.77957908      -0.66242200        6 
C       0.78011537       0.74917333      -0.74833502        6 
C      -1.02254322      -1.12290289      -0.69518137        6 
C      -0.26035146       1.75169509      -0.27418048        6 
O      -1.42590295      -1.83530684       0.37575416        8 
O      -1.74388528      -0.83944051      -1.62687225        8 
O      -1.27049740       1.20332456       0.42239870        8 
O      -0.14629345       2.94345390      -0.46919903        8 
C      -2.25709887       2.12337122       0.91717925        6 
C      -2.82391561      -2.16540231       0.38967881        6 
C       1.30492445      -1.20927940       0.57066198        6 
C       2.75490981      -1.44083675       0.09921261        6 
C       3.17965799       0.02141373      -0.23610731        6 
C       1.95369622       0.81603190       0.27685227        6 
O       1.43778339       0.00036883       1.33772745        8 
H       0.84495879      -1.25363230      -1.57091102        1 
H       1.08219093       1.06394391      -1.74900275        1 
H      -2.75674428       2.62736400       0.08523811        1 
H      -3.08775672      -2.76780186      -0.48408507        1 
H       0.86191051      -1.99034419       1.18457443        1 
H       3.35161991      -1.84589582       0.92086548        1 
H       2.83054402      -2.12459823      -0.75203142        1 
H       4.08187987       0.31533976       0.30635602        1 
H       3.35894706       0.18468688      -1.30332710        1 
H       2.16017644       1.82319579       0.63990475        1 
H      -2.96530767       1.51490485       1.48030560        1 
H      -1.79066098       2.87218394       1.56247500        1 
H      -3.42595554      -1.25226213       0.38352950        1 
H      -2.98459033      -2.72747764       1.31033349        1 
