29
Lattice="0.0 0.0 0.0 0.0 0.0 0.0 0.0 0.0 0.0" Properties=species:S:1:pos:R:3:Z:I:1 pbc="F F F"
C       0.54569347      -0.72916417      -0.74522675        6 
C       0.68967621       0.83413822      -0.63231121        6 
C      -0.85419228      -1.31330403      -0.65031215        6 
C      -0.47000332       1.71339760      -0.18188643        6 
O      -1.17820035      -1.67544609       0.60827006        8 
O      -1.57777101      -1.48445207      -1.60699398        8 
O      -1.64495655       1.08008233      -0.04764765        8 
O      -0.32268807       2.89965183       0.02809031        8 
C      -2.75086978       1.89995677       0.36959504        6 
C      -2.51233845      -2.17545051       0.76861816        6 
C       1.53237476      -1.18800530       0.37141786        6 
C       2.97807952      -1.08344581      -0.15751599        6 
C       3.17051249       0.46346964      -0.17081601        6 
C       1.82605626       0.93518173       0.42836422        6 
O       1.47350258      -0.12093690       1.33004581        8 
H       0.89701087      -1.03586382      -1.73370997        1 
H       1.00517959       1.26251692      -1.58878227        1 
H      -2.90077778       2.72437723      -0.33208585        1 
H      -2.66562748      -3.07644489       0.16731129        1 
H       1.26509357      -2.12746003       0.85189440        1 
H       3.66737435      -1.56200057       0.54339457        1 
H       3.11122822      -1.54871538      -1.13899700        1 
H       3.99916162       0.77028134       0.47290865        1 
H       3.35002488       0.87216923      -1.16995405        1 
H       1.84552079       1.89133570       0.94955255        1 
H      -3.61640496       1.23710592       0.37742150        1 
H      -2.56468315       2.30740581       1.36692098        1 
H      -3.23854756      -1.41795260       0.45891742        1 
H      -2.61797388      -2.39806712       1.83110226        1 
