29
Lattice="0.0 0.0 0.0 0.0 0.0 0.0 0.0 0.0 0.0" Properties=species:S:1:pos:R:3:Z:I:1 pbc="F F F"
C      -0.21159240      -0.79880581       0.59690053        6 
C      -0.77208932       0.65889428       0.54857497        6 
C       1.11511925      -1.11001896      -0.08058233        6 
C       0.10258014       1.88821223       0.37330417        6 
O       1.85949483      -1.90851497       0.73068809        8 
O       1.43742712      -0.83595640      -1.21164824        8 
O       1.36583440       1.64502948       0.00200853        8 
O      -0.34846883       3.00466832       0.53671744        8 
C       2.18659809       2.80590434      -0.20959577        6 
C       3.08774543      -2.37492405       0.15083418        6 
C      -1.31997027      -1.50518755      -0.26076073        6 
C      -2.68121605      -1.48304356       0.48352061        6 
C      -3.16672813      -0.03072951       0.18179129        6 
C      -1.91558426       0.53479258      -0.51946317        6 
O      -1.50503337      -0.57071600      -1.32659101        8 
H      -0.17697096      -1.17609081       1.62032293        1 
H      -1.24405022       0.85851192       1.51646975        1 
H       2.28938997       3.37820724       0.71697012        1 
H       3.73917604      -1.53198300      -0.09781460        1 
H      -1.02397389      -2.47301468      -0.66737159        1 
H      -3.35955179      -2.23036361       0.06367935        1 
H      -2.57338669      -1.68779522       1.55317064        1 
H      -4.00936524      -0.03339632      -0.51510648        1 
H      -3.45721410       0.53237119       1.07318068        1 
H      -2.06333958       1.42210738      -1.13442826        1 
H       3.15194636       2.42001153      -0.53743682        1 
H       1.74455903       3.44738583      -0.97631189        1 
H       2.89045797      -2.94585554      -0.76130136        1 
H       3.55060924      -3.00764059       0.90938254        1 
