29
Lattice="0.0 0.0 0.0 0.0 0.0 0.0 0.0 0.0 0.0" Properties=species:S:1:pos:R:3:Z:I:1 pbc="F F F"
C      -0.22132978      -0.74716874       0.63374194        6 
C      -0.73813703       0.71707261       0.50921546        6 
C       1.07199027      -1.12142328      -0.07238534        6 
C       0.17984397       1.90981699       0.31137994        6 
O       1.72699517      -2.06019550       0.66173581        8 
O       1.42871505      -0.77321594      -1.17221230        8 
O       1.48118901       1.61272448       0.19843711        8 
O      -0.26178884       3.04031596       0.25653164        8 
C       2.35600091       2.73198075      -0.02150766        6 
C       2.90034860      -2.60270221       0.03572530        6 
C      -1.36521645      -1.46385503      -0.16950737        6 
C      -2.72009039      -1.33541829       0.57636880        6 
C      -3.15388891       0.10772873       0.17020603        6 
C      -1.87928255       0.57978413      -0.55587065        6 
O      -1.51638607      -0.59277934      -1.29245632        8 
H      -0.17062010      -1.08038045       1.67165348        1 
H      -1.21539498       0.96699217       1.46475585        1 
H       2.31421651       3.42543698       0.82340757        1 
H       3.62906813      -1.81217820      -0.16525416        1 
H      -1.11200475      -2.46868979      -0.51078127        1 
H      -3.42825881      -2.08683913       0.21722517        1 
H      -2.61144586      -1.46476400       1.65777241        1 
H      -3.99106183       0.08445474      -0.53281652        1 
H      -3.43271286       0.73934299       1.01870893        1 
H      -1.98466445       1.43459882      -1.22265120        1 
H       3.35301218       2.30324230      -0.12376237        1 
H       2.06828646       3.26309613      -0.93253170        1 
H       2.64161260      -3.08852373      -0.90974365        1 
H       3.30430059      -3.32753620       0.74373368        1 
