29
Lattice="0.0 0.0 0.0 0.0 0.0 0.0 0.0 0.0 0.0" Properties=species:S:1:pos:R:3:Z:I:1 pbc="F F F"
C      -0.47667817      -0.78596485       0.45690086        6 
C      -0.58245518       0.77672957       0.65142431        6 
C       0.83373670      -1.24495705      -0.14620874        6 
C       0.52343878       1.55929242      -0.04402808        6 
O       1.51530109      -2.03202908       0.71813994        8 
O       1.23646942      -0.96476683      -1.25397107        8 
O       1.59709481       1.66671477       0.77847449        8 
O       0.45884829       2.07884153      -1.13144479        8 
C       2.74112944       2.30813741       0.18742733        6 
C       2.78598988      -2.50133599       0.23649372        6 
C      -1.70953543      -1.04888446      -0.46603361        6 
C      -2.97775451      -1.07736313       0.41384761        6 
C      -3.09495387       0.43261165       0.78889535        6 
C      -1.94129987       1.04010304      -0.04706844        6 
O      -1.86514053       0.17252169      -1.18539003        8 
H      -0.59390252      -1.28788024       1.41946021        1 
H      -0.57365245       1.03267411       1.71354041        1 
H       2.50512325       3.34073904      -0.08451162        1 
H       3.44827099      -1.65681042       0.02497940        1 
H      -1.58595637      -1.87599082      -1.16568373        1 
H      -3.83235011      -1.40351884      -0.18518705        1 
H      -2.89542715      -1.73931374       1.28134779        1 
H      -4.05588400       0.85038977       0.47749844        1 
H      -2.97772311       0.61885855       1.86133155        1 
H      -2.07720129       2.06699074      -0.38360786        1 
H       3.52126010       2.27926096       0.94926376        1 
H       3.05251106       1.76701339      -0.71051804        1 
H       2.65855242      -3.08695650      -0.67842178        1 
H       3.19361654      -3.11950296       1.03707528        1 
