29
Lattice="0.0 0.0 0.0 0.0 0.0 0.0 0.0 0.0 0.0" Properties=species:S:1:pos:R:3:Z:I:1 pbc="F F F"
C       0.76801582      -0.79331148      -0.69022809        6 
C       0.43845455       0.74413463      -0.73041940        6 
C      -0.39746830      -1.73113529      -0.43344606        6 
C      -1.03308388       1.07633506      -0.52258449        6 
O      -0.94435649      -1.52704813       0.78389540        8 
O      -0.75464167      -2.59831456      -1.19932471        8 
O      -1.20895126       2.19481073       0.20806822        8 
O      -1.94939940       0.45819510      -1.02082199        8 
C      -2.58024600       2.58271392       0.40850667        6 
C      -2.12991956      -2.29162044       1.05095363        6 
C       1.81763651      -0.81755617       0.46683520        6 
C       3.16868135      -0.29387577      -0.06701687        6 
C       2.86377391       1.23137909      -0.17874647        6 
C       1.40982029       1.28472771       0.34943843        6 
O       1.38548871       0.23983713       1.33054484        8 
H       1.20253752      -1.12242554      -1.63523914        1 
H       0.67732371       1.14686571      -1.72203478        1 
H      -3.12826287       1.78596689       0.91877953        1 
H      -1.93142903      -3.36291166       0.95890049        1 
H       1.85430106      -1.75395299       1.02389183        1 
H       3.96146843      -0.48818051       0.66026941        1 
H       3.45577708      -0.75383277      -1.01703675        1 
H       3.52066009       1.81701907       0.46985327        1 
H       2.96101248       1.61904210      -1.19775622        1 
H       1.10368917       2.22529339       0.80209936        1 
H      -2.54224139       3.48147134       1.02455475        1 
H      -3.06443443       2.78810095      -0.55014851        1 
H      -2.91678851      -2.00924894       0.34556016        1 
H      -2.41782051      -2.03857700       2.07214537        1 
