29
Lattice="0.0 0.0 0.0 0.0 0.0 0.0 0.0 0.0 0.0" Properties=species:S:1:pos:R:3:Z:I:1 pbc="F F F"
C       0.33223024       1.05156286       0.42410858        6 
C       0.47484661      -0.47195503       0.73167271        6 
C      -1.03134937       1.54704071      -0.02388463        6 
C      -0.54524796      -1.36857449       0.04024222        6 
O      -1.96604269       1.23304315       0.89868841        8 
O      -1.24914098       2.19429109      -1.02294914        8 
O      -0.22124886      -2.66633428       0.24726625        8 
O      -1.48408198      -1.02593539      -0.64271604        8 
C      -1.08299319      -3.62304860      -0.39411485        6 
C      -3.32003004       1.50779233       0.50582586        6 
C       1.47860000       1.28240467      -0.59617900        6 
C       2.79077662       1.48578209       0.18336424        6 
C       2.98275878       0.05791508       0.78200891        6 
C       1.85962028      -0.72776615       0.05814491        6 
O       1.68864425      -0.01935130      -1.17599989        8 
H       0.53234515       1.60075664       1.35249904        1 
H       0.47444488      -0.69953997       1.80117917        1 
H      -1.05453310      -3.49431526      -1.47959616        1 
H      -3.57911080       0.89448036      -0.36183620        1 
H       1.24022680       2.00465594      -1.37488496        1 
H       3.59942751       1.73542604      -0.50888674        1 
H       2.72944041       2.27321835       0.94100966        1 
H       3.96289782      -0.35743414       0.53343602        1 
H       2.87179311       0.02876642       1.87082938        1 
H       2.07015786      -1.77800920      -0.13872264        1 
H      -0.69504297      -4.60219074      -0.11108501        1 
H      -2.11407503      -3.50237287      -0.04993151        1 
H      -3.44737750       2.56457448       0.25600993        1 
H      -3.93672753       1.23765069       1.36419245        1 
