29
Lattice="0.0 0.0 0.0 0.0 0.0 0.0 0.0 0.0 0.0" Properties=species:S:1:pos:R:3:Z:I:1 pbc="F F F"
C      -0.78912333      -0.30159730      -0.73915349        6 
C       0.73697043      -0.48677756      -0.54236570        6 
C      -1.36264652       0.91902980      -0.03243950        6 
C       1.55227864       0.79025542      -0.47012884        6 
O      -2.68174761       1.02711469      -0.32404323        8 
O      -0.79513748       1.63046109       0.76287195        8 
O       2.67421040       0.61583055       0.26277295        8 
O       1.32402235       1.78209741      -1.12480078        8 
C       3.55267994       1.75413114       0.30294037        6 
C      -3.37172123       2.08555319       0.36201907        6 
C      -1.28459212      -1.53625245       0.07975482        6 
C      -0.78951452      -2.86400590      -0.55198725        6 
C       0.67410613      -2.93184849      -0.01289655        6 
C       0.79486005      -1.53031912       0.61678777        6 
O      -0.48391058      -1.40656567       1.26306832        8 
H      -1.11152372      -0.31832698      -1.78210235        1 
H       1.13337037      -0.95891964      -1.45149265        1 
H       3.02892703       2.62313670       0.70996658        1 
H      -2.92448856       3.05395716       0.12106752        1 
H      -2.34288340      -1.50199690       0.33847476        1 
H      -1.39083754      -3.70600539      -0.19957636        1 
H      -0.84388937      -2.84570272      -1.64532557        1 
H       0.77242929      -3.69624916       0.76281997        1 
H       1.41910891      -3.12960204      -0.78972356        1 
H       1.59656515      -1.37756356       1.33622728        1 
H       4.38087638       1.46327027       0.95002934        1 
H       3.91203769       1.99559069      -0.70168553        1 
H      -3.32469633       1.93391619       1.44429985        1 
H      -4.40330647       2.03995756       0.01067286        1 
