29
Lattice="0.0 0.0 0.0 0.0 0.0 0.0 0.0 0.0 0.0" Properties=species:S:1:pos:R:3:Z:I:1 pbc="F F F"
C       0.71646678      -0.78076855      -0.57592058        6 
C       0.37929524       0.74919939      -0.56135930        6 
C      -0.39060488      -1.72506844      -0.13968367        6 
C      -0.90834413       1.10738943       0.15363123        6 
O      -1.55760311      -1.40402376      -0.74092998        8 
O      -0.24988180      -2.67223915       0.59977079        8 
O      -1.60117336       2.03488625      -0.54664147        8 
O      -1.26587299       0.67673478       1.22781398        8 
C      -2.82923051       2.46168816       0.06663154        6 
C      -2.70183279      -2.15553964      -0.30195938        6 
C       1.97199353      -0.84033607       0.32971447        6 
C       3.19784955      -0.34814471      -0.46792251        6 
C       2.88786138       1.17778502      -0.56574590        6 
C       1.59217958       1.26985573       0.27755796        6 
O       1.75721886       0.23941888       1.25216455        8 
H       0.95986011      -1.07690646      -1.60367549        1 
H       0.35680798       1.17609292      -1.56511995        1 
H      -2.63639354       2.91272099       1.04414031        1 
H      -2.89494960      -1.94668590       0.75399111        1 
H       2.07928643      -1.77783339       0.87253987        1 
H       4.11157684      -0.53099309       0.10386607        1 
H       3.30279786      -0.83435310      -1.44307500        1 
H       3.67964432       1.77929719      -0.11146876        1 
H       2.74490239       1.52667932      -1.59328504        1 
H       1.42060713       2.22553117       0.77538684        1 
H      -3.26177423       3.19260899      -0.61744995        1 
H      -3.50346787       1.61053253       0.19978552        1 
H      -2.53643480      -3.22768467      -0.43568280        1 
H      -3.53260353      -1.81269294      -0.92004247        1 
