29
Lattice="0.0 0.0 0.0 0.0 0.0 0.0 0.0 0.0 0.0" Properties=species:S:1:pos:R:3:Z:I:1 pbc="F F F"
C       0.55621499      -0.75409909      -0.82378619        6 
C       0.69849460       0.78818121      -0.54873497        6 
C      -0.80522225      -1.40665637      -0.63175261        6 
C      -0.50073346       1.69814789      -0.35397216        6 
O      -1.14967915      -1.54385127       0.65974538        8 
O      -1.50100022      -1.77374756      -1.55640286        8 
O      -1.56315797       1.12057053       0.23265970        8 
O      -0.46588865       2.87336688      -0.65747565        8 
C      -2.68902150       1.98745715       0.45542361        6 
C      -2.46564370      -2.06448591       0.88608396        6 
C       1.59705276      -1.29344390       0.20638835        6 
C       3.03320143      -0.92147136      -0.24038711        6 
C       3.10446793       0.57669775       0.18963485        6 
C       1.66097731       0.79077223       0.69198979        6 
O       1.37614264      -0.44610431       1.34173934        8 
H       0.83681771      -0.97572824      -1.85497990        1 
H       1.21417317       1.24510897      -1.39614822        1 
H      -3.05891567       2.38537330      -0.49348392        1 
H      -2.58301521      -3.05015981       0.42662171        1 
H       1.44654376      -2.33370820       0.49511463        1 
H       3.76914459      -1.52760899       0.29443616        1 
H       3.18883573      -1.06979086      -1.31332441        1 
H       3.80713349       0.71823379       1.01535514        1 
H       3.38599247       1.25455760      -0.62123750        1 
H       1.51290976       1.62262354       1.38148665        1 
H      -3.44475655       1.36361119       0.93343389        1 
H      -2.40708386       2.82053757       1.10479631        1 
H      -3.21439544      -1.38702669       0.46404357        1 
H      -2.57277775      -2.12785498       1.96950846        1 
