29
Lattice="0.0 0.0 0.0 0.0 0.0 0.0 0.0 0.0 0.0" Properties=species:S:1:pos:R:3:Z:I:1 pbc="F F F"
C      -0.36080328      -0.75241571       0.57250763        6 
C      -0.72225132       0.76963062       0.55930032        6 
C       0.92171007      -1.11279405      -0.15421311        6 
C       0.36877496       1.75341286       0.17348317        6 
O       1.64171788      -2.00324972       0.56782609        8 
O       1.24729336      -0.72396221      -1.25337614        8 
O       1.56952005       1.37483015       0.65822615        8 
O       0.18360539       2.77589399      -0.44813262        8 
C       2.67984347       2.19771531       0.26318308        6 
C       2.85421891      -2.44939130      -0.06122474        6 
C      -1.57151019      -1.30431823      -0.25047974        6 
C      -2.87297876      -1.19110916       0.58232870        6 
C      -3.19869607       0.32647354       0.42196201        6 
C      -1.96352591       0.80091464      -0.37210997        6 
O      -1.73574233      -0.30503228      -1.25825538        8 
H      -0.32364779      -1.16135647       1.58329922        1 
H      -1.00833121       1.06484946       1.57701867        1 
H       2.51621959       3.23670418       0.56086446        1 
H       3.52211590      -1.60253297      -0.24392151        1 
H      -1.39568504      -2.27460434      -0.71766307        1 
H      -3.65636274      -1.81831224       0.14858649        1 
H      -2.73262531      -1.49807736       1.62349861        1 
H      -4.10263523       0.47562974      -0.17460449        1 
H      -3.32841269       0.84741450       1.37583805        1 
H      -2.06707337       1.72366190      -0.94053598        1 
H       3.54887682       1.78084107       0.77341360        1 
H       2.80889788       2.14773549      -0.82138081        1 
H       2.63638872      -2.93669474      -1.01591320        1 
H       3.30696344      -3.15389767       0.63742582        1 
