29
Lattice="0.0 0.0 0.0 0.0 0.0 0.0 0.0 0.0 0.0" Properties=species:S:1:pos:R:3:Z:I:1 pbc="F F F"
C      -0.78441418      -0.25007385      -0.78549577        6 
C       0.72007042      -0.50452409      -0.51906272        6 
C      -1.33082056       0.98973723      -0.08226062        6 
C       1.61058113       0.72212092      -0.47178086        6 
O      -2.67463996       1.04679268      -0.24779943        8 
O      -0.71606623       1.76118457       0.61599509        8 
O       2.69095056       0.51344497       0.31439912        8 
O       1.47656703       1.68931084      -1.18611035        8 
C       3.64210620       1.59198956       0.33099961        6 
C      -3.32930072       2.12309413       0.44485953        6 
C      -1.36317804      -1.47071579      -0.00112614        6 
C      -0.85996542      -2.81738967      -0.58633362        6 
C       0.55553380      -2.92733477       0.06428926        6 
C       0.67764646      -1.51617948       0.66938258        6 
O      -0.63546421      -1.34537179       1.23180772        8 
H      -1.05756116      -0.23786138      -1.84296975        1 
H       1.11829904      -1.03187925      -1.39653777        1 
H       3.16477921       2.51375192       0.67413796        1 
H      -2.95509312       3.08924391       0.09468925        1 
H      -2.43357874      -1.40954089       0.18930783        1 
H      -1.51277968      -3.63912963      -0.28082437        1 
H      -0.82757180      -2.80351498      -1.68082149        1 
H       0.56583123      -3.67578403       0.86148593        1 
H       1.34898952      -3.16878998      -0.64975998        1 
H       1.43737630      -1.36575509       1.43334727        1 
H       4.42612841       1.28166840       1.02263207        1 
H       4.05094863       1.75681078      -0.67016547        1 
H      -3.15518234       2.04509779       1.52170278        1 
H      -4.39049866       2.01625798       0.21650378        1 
