29
Lattice="0.0 0.0 0.0 0.0 0.0 0.0 0.0 0.0 0.0" Properties=species:S:1:pos:R:3:Z:I:1 pbc="F F F"
C       0.34283125       1.05751904       0.32204304        6 
C       0.48780008      -0.42903718       0.82791046        6 
C      -1.02047713       1.44445872      -0.21550079        6 
C      -0.60506448      -1.37060960       0.31281370        6 
O      -1.88027739       1.64760985       0.80078622        8 
O      -1.30393590       1.55878767      -1.38786360        8 
O      -0.10530315      -2.52288874      -0.17279801        8 
O      -1.79479530      -1.13955415       0.35635071        8 
C      -1.08087778      -3.44408001      -0.69174751        6 
C      -3.25646678       1.79276544       0.41499936        6 
C       1.49796459       1.13793559      -0.71531138        6 
C       2.79899486       1.46114537       0.04020570        6 
C       2.98008638       0.13879801       0.84734864        6 
C       1.87524488      -0.75550032       0.22576953        6 
O       1.71604349      -0.22923126      -1.10162038        8 
H       0.53342845       1.72116925       1.17174973        1 
H       0.45506324      -0.47296403       1.92161917        1 
H      -1.64662967      -2.97767521      -1.50258544        1 
H      -3.60146092       0.86404002      -0.04691158        1 
H       1.26550814       1.73597294      -1.59523361        1 
H       3.61614078       1.60298443      -0.67217334        1 
H       2.72852531       2.35354482       0.66994894        1 
H       3.96715364      -0.30256762       0.68744210        1 
H       2.84484735       0.27346731       1.92587175        1 
H       2.10672737      -1.81682125       0.17549286        1 
H      -0.50881589      -4.29597252      -1.06023734        1 
H      -1.77482430      -3.75337621       0.09493474        1 
H      -3.37863202       2.62116887      -0.28816742        1 
H      -3.80202950       1.98746761       1.33919140        1 
