29
Lattice="0.0 0.0 0.0 0.0 0.0 0.0 0.0 0.0 0.0" Properties=species:S:1:pos:R:3:Z:I:1 pbc="F F F"
C       0.36805640       1.03671955       0.36904215        6 
C       0.63972093      -0.43721794       0.87661426        6 
C      -1.00596590       1.19938473      -0.24826623        6 
C      -0.54948219      -1.35115271       0.61204078        6 
O      -1.82760996       1.89066232       0.56475396        8 
O      -1.33612240       0.75438674      -1.32709381        8 
O      -0.30215241      -2.30091148      -0.30205809        8 
O      -1.61781817      -1.21543908       1.17413343        8 
C      -1.43963317      -3.10105170      -0.67185117        6 
C      -3.19895937       1.94547997       0.13244839        6 
C       1.50636938       1.18333944      -0.68305982        6 
C       2.83563900       1.45313711       0.05404095        6 
C       3.11842131       0.04366920       0.65975703        6 
C       1.93063845      -0.77109901       0.09191217        6 
O       1.68478562      -0.14816337      -1.17530247        8 
H       0.46859647       1.74813844       1.19078157        1 
H       0.78369883      -0.43687613       1.96096708        1 
H      -2.20925009      -2.46305404      -1.11427172        1 
H      -3.60702807       0.93264666       0.07580668        1 
H       1.26722515       1.84926119      -1.51222749        1 
H       3.60963483       1.74047360      -0.66257373        1 
H       2.75507579       2.24312812       0.80707951        1 
H       4.06442088      -0.36520732       0.29468580        1 
H       3.14977565       0.04056251       1.75395492        1 
H       2.10970165      -1.83550246      -0.05009443        1 
H      -1.06608559      -3.81891164      -1.40235219        1 
H      -1.85222039      -3.61224797       0.20214679        1 
H      -3.27720116       2.42190686      -0.84869380        1 
H      -3.72188545       2.53049445       0.88958376        1 
