29
Lattice="0.0 0.0 0.0 0.0 0.0 0.0 0.0 0.0 0.0" Properties=species:S:1:pos:R:3:Z:I:1 pbc="F F F"
C      -0.80741084      -0.29245760      -0.70881275        6 
C       0.69235717      -0.74853277      -0.70070856        6 
C      -1.07246048       1.11439857      -0.18890577        6 
C       1.71104844       0.37892626      -0.61941624        6 
O      -2.40718822       1.32226030      -0.10941659        8 
O      -0.25533839       1.94747405       0.13220384        8 
O       2.23104805       0.52043276       0.61379498        8 
O       2.04846583       1.03214059      -1.58229542        8 
C       3.07493651       1.67056912       0.77969574        6 
C      -2.79761325       2.61307722       0.39185409        6 
C      -1.40741272      -1.32803953       0.28785804        6 
C      -1.35791353      -2.75541604      -0.30913451        6 
C       0.14009443      -3.12542637      -0.08525957        6 
C       0.68115248      -1.78762833       0.46001638        6 
O      -0.39819237      -1.35096149       1.30392129        8 
H      -1.25947104      -0.36801209      -1.70235765        1 
H       0.90762431      -1.23571033      -1.65601176        1 
H       2.49697446       2.57653368       0.57881329        1 
H      -2.41923490       3.40651594      -0.25860446        1 
H      -2.36338840      -1.02901235       0.71537522        1 
H      -2.02485668      -3.42196459       0.24417201        1 
H      -1.65698322      -2.77875597      -1.36198042        1 
H       0.24506415      -3.90655295       0.67262962        1 
H       0.64989473      -3.45713386      -0.99467014        1 
H       1.60174837      -1.83531956       1.03804962        1 
H       3.40660590       1.64457013       1.81839744        1 
H       3.92918916       1.62658641       0.09816159        1 
H      -2.40553480       2.76394773       1.40132026        1 
H      -3.88804947       2.60673725       0.39809168        1 
