29
Lattice="0.0 0.0 0.0 0.0 0.0 0.0 0.0 0.0 0.0" Properties=species:S:1:pos:R:3:Z:I:1 pbc="F F F"
C       0.09824779       1.08248322       0.33411297        6 
C       0.49709118      -0.34353907       0.82492320        6 
C      -1.33992463       1.34999193      -0.06041682        6 
C      -0.26614259      -1.47869886       0.12911617        6 
O      -2.18703730       0.86153973       0.86599888        8 
O      -1.68414376       1.96155778      -1.04812187        8 
O       0.47313286      -2.61061597       0.11279045        8 
O      -1.35734513      -1.41014712      -0.39104996        8 
C      -0.13837426      -3.73179224      -0.54792198        6 
C      -3.57625836       0.90627059       0.50722439        6 
C       1.18873422       1.38478209      -0.72961100        6 
C       2.39208152       2.00136173       0.00422717        6 
C       2.81499504       0.78598656       0.88580982        6 
C       1.95664312      -0.35490287       0.27717358        6 
O       1.70921514       0.08537913      -1.07138743        8 
H       0.24422910       1.75256778       1.19325017        1 
H       0.41920427      -0.46199530       1.90958440        1 
H      -0.34522776      -3.49004902      -1.59377209        1 
H      -3.74760331       0.26765214      -0.36377971        1 
H       0.82200331       1.89410163      -1.61921548        1 
H       3.17459471       2.25922835      -0.71471303        1 
H       2.14144245       2.89690414       0.58109086        1 
H       3.88026503       0.56171765       0.78780192        1 
H       2.60187953       0.93742676       1.94945075        1 
H       2.42522982      -1.33587459       0.26486073        1 
H       0.58607417      -4.54366993      -0.47466971        1 
H      -1.07552948      -4.00518953      -0.05470114        1 
H      -3.88954858       1.92858703       0.27851073        1 
H      -4.11635365       0.52218104       1.37362343        1 
