29
Lattice="0.0 0.0 0.0 0.0 0.0 0.0 0.0 0.0 0.0" Properties=species:S:1:pos:R:3:Z:I:1 pbc="F F F"
C      -0.52399631       0.58405801      -0.89036704        6 
C      -0.43852691      -0.85927289      -0.33266604        6 
C       0.40312125       1.65910201      -0.32122211        6 
C       0.87095395      -1.58592257      -0.11647910        6 
O       1.33034539       1.20967021       0.53748639        8 
O       0.28065247       2.82908742      -0.62188188        8 
O       1.90105310      -1.03604487      -0.78348511        8 
O       0.96051866      -2.59366613       0.55412024        8 
C       3.15379848      -1.72667494      -0.64985986        6 
C       2.13484311       2.22760269       1.15559203        6 
C      -1.90718714       0.96036600      -0.25951647        6 
C      -3.04965915       0.00916373      -0.70161450        6 
C      -2.83831224      -1.20451057       0.25859906        6 
C      -1.46586837      -0.83081436       0.84594529        6 
O      -1.65396056       0.57153981       1.10560212        8 
H      -0.49878539       0.64222322      -1.98054632        1 
H      -0.87920202      -1.49347745      -1.11761571        1 
H       3.06821264      -2.75671472      -1.00783003        1 
H       1.50518998       2.91027564       1.73288344        1 
H      -2.13007779       2.02516605      -0.31039884        1 
H      -4.02328334       0.48221048      -0.55105178        1 
H      -2.97171869      -0.26333060      -1.75927066        1 
H      -3.59185883      -1.21820132       1.05093645        1 
H      -2.84642702      -2.17407145      -0.24871790        1 
H      -1.14716874      -1.35225058       1.74712471        1 
H       3.86361920      -1.16460117      -1.25765042        1 
H       3.46883668      -1.74208304       0.39732428        1 
H       2.67810970       2.79928445       0.39825467        1 
H       2.82619951       1.69475464       1.80918757        1 
