29
Lattice="0.0 0.0 0.0 0.0 0.0 0.0 0.0 0.0 0.0" Properties=species:S:1:pos:R:3:Z:I:1 pbc="F F F"
C       0.40586432       1.03356843       0.29840711        6 
C       0.44900370      -0.44575782       0.84734658        6 
C      -0.93047728       1.53677149      -0.20846696        6 
C      -0.69008925      -1.34000624       0.34132385        6 
O      -1.80359417       1.64018007       0.80840543        8 
O      -1.18897481       1.79702239      -1.36411661        8 
O      -0.24290592      -2.43954831      -0.29551436        8 
O      -1.87007728      -1.11587791       0.50859972        8 
C      -1.26567353      -3.30640904      -0.81415627        6 
C      -3.16578940       1.89442217       0.43067014        6 
C       1.55779751       1.01307552      -0.74373456        6 
C       2.87502012       1.28881917       0.00212082        6 
C       2.96936812      -0.00600196       0.86742613        6 
C       1.82294756      -0.86356161       0.26723496        6 
O       1.70073943      -0.37647947      -1.07915123        8 
H       0.66410136       1.69332663       1.13468975        1 
H       0.39738253      -0.45486225       1.94029528        1 
H      -1.88460876      -2.76996353      -1.53855888        1 
H      -3.54773704       1.04539309      -0.14215489        1 
H       1.35588623       1.59299831      -1.64323098        1 
H       3.70072233       1.34852702      -0.71214926        1 
H       2.85968629       2.21005007       0.59289011        1 
H       3.93223642      -0.50872347       0.74537731        1 
H       2.82426813       0.18482054       1.93611001        1 
H       2.00077007      -1.93651973       0.25454793        1 
H      -0.73418448      -4.12771302      -1.29559897        1 
H      -1.90412301      -3.67642254      -0.00690445        1 
H      -3.24082930       2.80660907      -0.16750569        1 
H      -3.71480696       1.99890397       1.36700747        1 
