29
Lattice="0.0 0.0 0.0 0.0 0.0 0.0 0.0 0.0 0.0" Properties=species:S:1:pos:R:3:Z:I:1 pbc="F F F"
C       0.57059031       0.99429145       0.60365233        6 
C       0.59247136      -0.57909764       0.72835832        6 
C      -0.63257416       1.64022060      -0.08579830        6 
C      -0.74354699      -1.30053022       0.66942276        6 
O      -1.80043434       1.14168258       0.35835674        8 
O      -0.55938931       2.54168539      -0.89215654        8 
O      -0.96416193      -1.87503447      -0.53386214        8 
O      -1.48546316      -1.42785742       1.61746917        8 
C      -2.21055251      -2.57935085      -0.65093733        6 
C      -2.98473895       1.70864164      -0.22733498        6 
C       1.81353995       1.20024774      -0.29560633        6 
C       3.11214727       0.78550389       0.43580229        6 
C       3.06017350      -0.76686687       0.29766106        6 
C       1.66758132      -0.94141709      -0.34075197        6 
O       1.62170632       0.15462538      -1.26391445        8 
H       0.66014771       1.46101407       1.59054016        1 
H       0.95879125      -0.82047005       1.73045190        1 
H      -3.04969370      -1.89412440      -0.49882419        1 
H      -2.97960946       1.56521773      -1.31152024        1 
H       1.82934770       2.16567226      -0.79698050        1 
H       3.98553352       1.20588064      -0.06931139        1 
H       3.13148065       1.12439862       1.47682566        1 
H       3.82986730      -1.12848094      -0.38980740        1 
H       3.17279737      -1.29646708       1.24891469        1 
H       1.49033567      -1.87665759      -0.86886268        1 
H      -2.22463342      -2.98658480      -1.66246722        1 
H      -2.27118029      -3.37969246       0.09181934        1 
H      -3.04391251       2.77898201      -0.01157060        1 
H      -3.81722366       1.17489198       0.23188209        1 
