29
Lattice="0.0 0.0 0.0 0.0 0.0 0.0 0.0 0.0 0.0" Properties=species:S:1:pos:R:3:Z:I:1 pbc="F F F"
C      -0.76567776       0.47613744      -0.86454760        6 
C      -0.20505094      -0.94444052      -0.47794453        6 
C       0.26610741       1.58115485      -0.68980634        6 
C       1.20606663      -0.95089476       0.07432263        6 
O       0.06915868       2.31602047       0.41414745        8 
O       1.17572101       1.75376480      -1.47415157        8 
O       1.91569105      -1.97430303      -0.44988867        8 
O       1.64539796      -0.19030626       0.90946333        8 
C       3.26471007      -2.09072620       0.03609406        6 
C       1.12749031       3.23681592       0.72629198        6 
C      -2.00622288       0.55820364       0.05839295        6 
C      -3.11541241      -0.38028396      -0.47393727        6 
C      -2.56145791      -1.77292950      -0.04200818        6 
C      -1.23384936      -1.35675333       0.63006601        6 
O      -1.56290369      -0.11386266       1.24712860        8 
H      -1.03121083       0.48412739      -1.92509451        1 
H      -0.24287920      -1.62791550      -1.32769634        1 
H       3.27081497      -2.24019751       1.11949224        1 
H       1.25774387       3.96581161      -0.07851674        1 
H      -2.31905692       1.57068950       0.30756698        1 
H      -4.06549429      -0.16072574       0.02016097        1 
H      -3.26458926      -0.28948553      -1.55426730        1 
H      -3.21584151      -2.25055422       0.69242310        1 
H      -2.42096118      -2.46825430      -0.87491741        1 
H      -0.84313185      -2.04927992       1.37715694        1 
H       3.68658748      -2.95620662      -0.47592684        1 
H       3.83245891      -1.18667701      -0.20055405        1 
H       2.05829664       2.68264478       0.87140897        1 
H       0.82267980       3.72912992       1.65012214        1 
