29
Lattice="0.0 0.0 0.0 0.0 0.0 0.0 0.0 0.0 0.0" Properties=species:S:1:pos:R:3:Z:I:1 pbc="F F F"
C       0.63900566      -0.59182409       0.60563545        6 
C      -0.84888802      -0.13915960       0.44108478        6 
C       1.72461158       0.22424605      -0.08761973        6 
C      -1.13264526       1.28912352       0.01520155        6 
O       2.67257259       0.58498191       0.81864059        8 
O       1.83789558       0.41312047      -1.27343967        8 
O      -2.29605727       1.69339409       0.59213370        8 
O      -0.47794153       1.99929972      -0.71070760        8 
C      -2.72315643       3.01747837       0.23170144        6 
C       3.79298558       1.29055822       0.25984446        6 
C       0.55799206      -1.96987310      -0.13223889        6 
C      -0.31992911      -2.96320992       0.67260136        6 
C      -1.75328780      -2.48490505       0.28236019        6 
C      -1.40603808      -1.22879237      -0.54399353        6 
O      -0.25364795      -1.65349783      -1.26707818        8 
H       0.90049453      -0.69607195       1.65983062        1 
H      -1.35177947      -0.25318691       1.40481502        1 
H      -2.86962755       3.09483483      -0.84952697        1 
H       3.46028130       2.20994602      -0.23018563        1 
H       1.52036694      -2.35621271      -0.46866590        1 
H      -0.13609150      -3.98941606       0.34412231        1 
H      -0.12614814      -2.91385093       1.74867053        1 
H      -2.25366398      -3.21779981      -0.35650959        1 
H      -2.39885217      -2.27586134       1.14061548        1 
H      -2.17406461      -0.87733765      -1.23382776        1 
H      -3.66400557       3.17657408       0.76007683        1 
H      -1.97831524       3.75722930       0.53874287        1 
H       4.30955060       0.66831187      -0.47698863        1 
H       4.44871935       1.51640367       1.10182168        1 
