29
Lattice="0.0 0.0 0.0 0.0 0.0 0.0 0.0 0.0 0.0" Properties=species:S:1:pos:R:3:Z:I:1 pbc="F F F"
C      -0.42828702      -0.72833892       0.51200399        6 
C      -0.62955953       0.82617293       0.64094893        6 
C       0.89459075      -1.16060854      -0.08252101        6 
C       0.47961248       1.65802886       0.01017005        6 
O       1.41196510      -2.20208109       0.60848073        8 
O       1.42131229      -0.68627501      -1.06558745        8 
O       1.56222326       1.66813350       0.82443175        8 
O       0.40091861       2.28966232      -1.01591176        8 
C       2.72601344       2.30007118       0.26350769        6 
C       2.64707358      -2.72235614       0.08715499        6 
C      -1.62793521      -1.09563103      -0.42647784        6 
C      -2.92312826      -1.12252169       0.41357880        6 
C      -3.13211183       0.40275336       0.66481214        6 
C      -1.95512212       1.00326404      -0.14029474        6 
O      -1.79272348       0.07377925      -1.22295320        8 
H      -0.53484727      -1.21498019       1.48336865        1 
H      -0.70476991       1.11017960       1.69428696        1 
H       2.52242629       3.34880816       0.03055177        1 
H       3.42223281      -1.95089957       0.10135043        1 
H      -1.45751040      -1.96135978      -1.06820050        1 
H      -3.73906122      -1.54001879      -0.18273152        1 
H      -2.83410976      -1.71205793       1.33099085        1 
H      -4.08674979       0.74725338       0.25876801        1 
H      -3.09859469       0.67443143       1.72472560        1 
H      -2.10253050       2.00393764      -0.54277827        1 
H       3.50203712       2.21849714       1.02583533        1 
H       3.02326626       1.77933885      -0.65111411        1 
H       2.51418000      -3.06908724      -0.94158252        1 
H       2.91607959      -3.55142986       0.74247084        1 
