29
Lattice="0.0 0.0 0.0 0.0 0.0 0.0 0.0 0.0 0.0" Properties=species:S:1:pos:R:3:Z:I:1 pbc="F F F"
C       0.67238765      -0.78915354      -0.55569024        6 
C       0.56748736       0.76027131      -0.81046348        6 
C      -0.54587653      -1.68661296      -0.42964060        6 
C      -0.74766508       1.49358667      -0.59058531        6 
O      -1.54463320      -1.18511522       0.31581915        8 
O      -0.57817516      -2.79633892      -0.92270645        8 
O      -1.18195876       1.45490980       0.67808354        8 
O      -1.33212508       2.07678355      -1.48210131        8 
C      -2.44628613       2.09025296       0.91030804        6 
C      -2.67921200      -2.05268578       0.48329640        6 
C       1.60605377      -0.83152614       0.70843702        6 
C       3.06530009      -0.67690022       0.23263626        6 
C       3.05244725       0.81556437      -0.22078158        6 
C       1.63238305       1.25224985       0.22294133        6 
O       1.36612114       0.41706006       1.35502660        8 
H       1.20427015      -1.23067832      -1.40085138        1 
H       0.85097900       0.99157365      -1.83839128        1 
H      -3.22582439       1.61715060       0.30534283        1 
H      -2.38188452      -2.98180852       0.97725801        1 
H       1.41032932      -1.65348957       1.39807791        1 
H       3.74544059      -0.82825445       1.07539343        1 
H       3.34041822      -1.37625561      -0.56192316        1 
H       3.81441507       1.40104045       0.30031650        1 
H       3.20841839       0.93903239      -1.29676032        1 
H       1.53032316       2.29935901       0.50994198        1 
H      -2.64857058       1.95475291       1.97325588        1 
H      -2.40266710       3.15366772       0.65748084        1 
H      -3.12346804      -2.29480519      -0.48620641        1 
H      -3.38185963      -1.49397498       1.10230824        1 
