29
Lattice="0.0 0.0 0.0 0.0 0.0 0.0 0.0 0.0 0.0" Properties=species:S:1:pos:R:3:Z:I:1 pbc="F F F"
C      -0.70578077       0.53576120      -0.87679284        6 
C      -0.22464657      -0.88546258      -0.39214796        6 
C       0.22551868       1.72117701      -0.66868302        6 
C       1.20978607      -1.04609950       0.08116918        6 
O       0.46771401       1.97350024       0.62256442        8 
O       0.69903931       2.36063491      -1.58747987        8 
O       1.79124752      -2.07648381      -0.58538782        8 
O       1.77303494      -0.42944107       0.95650313        8 
C       3.13942168      -2.37505144      -0.18684869        6 
C       1.43036651       3.00484564       0.88296544        6 
C      -2.00305577       0.67623341      -0.01988930        6 
C      -3.08602679      -0.30703938      -0.53008083        6 
C      -2.58075960      -1.65116294       0.08097049        6 
C      -1.26535491      -1.18297791       0.74086585        6 
O      -1.61283406       0.10929567       1.23442189        8 
H      -0.91735364       0.51776378      -1.94719376        1 
H      -0.35551599      -1.59214807      -1.21365708        1 
H       3.17569557      -2.64734086       0.87203657        1 
H       1.10722664       3.95701291       0.45242691        1 
H      -2.33372992       1.70431988       0.13097357        1 
H      -4.06688923      -0.03145369      -0.13410560        1 
H      -3.15526136      -0.32677942      -1.62194262        1 
H      -3.26790150      -2.01982895       0.84752844        1 
H      -2.43709106      -2.44298161      -0.65983790        1 
H      -0.89121807      -1.80102684       1.55770023        1 
H       3.45121060      -3.21294591      -0.81139026        1 
H       3.78818174      -1.50974531      -0.34994950        1 
H       2.39884795       2.72825549       0.45716431        1 
H       1.49636651       3.07089000       1.96888348        1 
