29
Lattice="0.0 0.0 0.0 0.0 0.0 0.0 0.0 0.0 0.0" Properties=species:S:1:pos:R:3:Z:I:1 pbc="F F F"
C       0.72605615      -0.84222550      -0.64752649        6 
C       0.49931062       0.71136691      -0.79728948        6 
C      -0.52717745      -1.67458635      -0.45605966        6 
C      -0.94059922       1.14267139      -0.54226264        6 
O      -1.04336483      -1.51549496       0.78262342        8 
O      -0.97903453      -2.43128192      -1.28528950        8 
O      -1.03393575       2.20018651       0.28547652        8 
O      -1.90305606       0.62276778      -1.06612814        8 
C      -2.37490328       2.64639088       0.55362888        6 
C      -2.30139539      -2.17361485       1.00143075        6 
C       1.71210189      -0.86834968       0.56136532        6 
C       3.12846466      -0.53684545       0.04918355        6 
C       2.96921254       0.98269451      -0.26389024        6 
C       1.52519219       1.24347537       0.23251008        6 
O       1.36944210       0.30610777       1.30769322        8 
H       1.19384648      -1.23732452      -1.55086093        1 
H       0.72521748       1.02582439      -1.82212446        1 
H      -2.95382228       1.84390443       1.01882012        1 
H      -2.20535646      -3.25295755       0.85454748        1 
H       1.62349628      -1.74698405       1.19979973        1 
H       3.86086758      -0.70256847       0.84397192        1 
H       3.42263333      -1.13493344      -0.81839225        1 
H       3.68150809       1.58602688       0.30496029        1 
H       3.09711888       1.22177145      -1.32461580        1 
H       1.32402346       2.25080825       0.59013126        1 
H      -2.27076152       3.49205746       1.23381673        1 
H      -2.87063348       2.95076864      -0.37228798        1 
H      -3.04938510      -1.78150168       0.30649399        1 
H      -2.57474842      -1.94744267       2.03291774        1 
