29
Lattice="0.0 0.0 0.0 0.0 0.0 0.0 0.0 0.0 0.0" Properties=species:S:1:pos:R:3:Z:I:1 pbc="F F F"
C       0.04129466      -0.83696921       0.53508733        6 
C      -0.94017419       0.34876505       0.80485763        6 
C       1.50349552      -0.50627035       0.29215631        6 
C      -0.43987141       1.76056876       0.52802137        6 
O       2.19577008      -1.66267709       0.14950908        8 
O       2.03290376       0.58203820       0.29737749        8 
O      -0.13556664       1.94933494      -0.76760933        8 
O      -0.37884043       2.62549918       1.37558881        8 
C       0.45579524       3.21899188      -1.07553595        6 
C       3.61235077      -1.50744860      -0.04568733        6 
C      -0.67330238      -1.58958802      -0.63502482        6 
C      -1.83472840      -2.42333564      -0.05028284        6 
C      -2.83650349      -1.28895453       0.32961108        6 
C      -2.08277965      -0.03852909      -0.18756410        6 
O      -1.36250709      -0.54299959      -1.32011544        8 
H       0.06510248      -1.49251936       1.41302346        1 
H      -1.27898692       0.35316710       1.84194410        1 
H       1.41830887       3.30938771      -0.56417135        1 
H       4.06052652      -0.98622534       0.80493388        1 
H      -0.00187140      -2.11169722      -1.31616093        1 
H      -2.24961804      -3.07569582      -0.82340782        1 
H      -1.53472613      -3.04576925       0.79817780        1 
H      -3.78782510      -1.40419833      -0.19667500        1 
H      -3.04708138      -1.23897922       1.40228152        1 
H      -2.71186409       0.79584306      -0.49839917        1 
H       0.59419112       3.22184391      -2.15747679        1 
H      -0.19771118       4.03962822      -0.76663142        1 
H       3.81419301      -0.93642529      -0.95644135        1 
H       4.00897892      -2.51969560      -0.13054940        1 
