29
Lattice="0.0 0.0 0.0 0.0 0.0 0.0 0.0 0.0 0.0" Properties=species:S:1:pos:R:3:Z:I:1 pbc="F F F"
C      -0.51781650       0.49844977      -0.82920048        6 
C      -0.50522997      -1.01859204      -0.36402204        6 
C       0.74925190       1.28735160      -0.51057918        6 
C       0.80249763      -1.52815419       0.21691376        6 
O       0.60001138       2.11082608       0.54650597        8 
O       1.77117052       1.21783414      -1.15897924        8 
O       1.74889943      -1.57469371      -0.73648183        8 
O       0.98640071      -1.84148857       1.37381966        8 
C       3.06986347      -1.91762141      -0.28850152        6 
C       1.76299936       2.88186243       0.88901862        6 
C      -1.78419124       0.98520236      -0.08003106        6 
C      -3.05195473       0.36338667      -0.71828550        6 
C      -3.01145894      -1.07939015      -0.12764201        6 
C      -1.67948763      -1.03155386       0.64761664        6 
O      -1.67803271       0.30165181       1.17551546        8 
H      -0.61827166       0.54737243      -1.91639844        1 
H      -0.71669605      -1.64664807      -1.23567335        1 
H       3.07943939      -2.91579156       0.15847501        1 
H       2.07850051       3.49893918       0.04298260        1 
H      -1.82192187       2.05995517       0.08940653        1 
H      -3.94422234       0.90495819      -0.39362009        1 
H      -3.02466879       0.38309080      -1.81243701        1 
H      -3.83916628      -1.24483228       0.56727999        1 
H      -3.04267860      -1.86460052      -0.88960450        1 
H      -1.55567094      -1.74830671       1.45801735        1 
H       3.69684468      -1.88366786      -1.17936819        1 
H       3.41654161      -1.19002345       0.45051219        1 
H       2.58747532       2.22118338       1.17201569        1 
H       1.46290345       3.50303062       1.73326887        1 
