29
Lattice="0.0 0.0 0.0 0.0 0.0 0.0 0.0 0.0 0.0" Properties=species:S:1:pos:R:3:Z:I:1 pbc="F F F"
C      -0.55764429       0.68470316      -0.69267870        6 
C      -0.64650082      -0.88640205      -0.67349427        6 
C       0.82946832       1.30380980      -0.64761930        6 
C       0.50630963      -1.69989576      -0.08463637        6 
O       1.14025891       1.79156893       0.57248269        8 
O       1.54334338       1.41870224      -1.61908623        8 
O       1.69991337      -1.09042287      -0.16300049        8 
O       0.35946192      -2.81629092       0.36593615        8 
C       2.81432340      -1.83595382       0.35729738        6 
C       2.45526520       2.35703326       0.67796725        6 
C      -1.55817560       1.04947890       0.44665046        6 
C      -2.98494180       1.02309692      -0.13644404        6 
C      -3.16338965      -0.50832194      -0.37332742        6 
C      -1.86907269      -1.06666549       0.26567031        6 
O      -1.56021525      -0.11064043       1.29266115        8 
H      -0.94751009       1.02002687      -1.65831970        1 
H      -0.82103975      -1.28463738      -1.67887057        1 
H       2.90034810      -2.79868608      -0.15317413        1 
H       2.58190030       3.17624071      -0.03506899        1 
H      -1.28867648       1.92907052       1.02818702        1 
H      -3.69579800       1.39337215       0.60743547        1 
H      -3.09325821       1.62335559      -1.04514960        1 
H      -4.04246083      -0.89676563       0.14723211        1 
H      -3.25479500      -0.77470041      -1.43132829        1 
H      -1.93814912      -2.06527358       0.69285228        1 
H       3.69097899      -1.21649109       0.16676752        1 
H       2.68521036      -2.01071744       1.42894143        1 
H       3.21086869       1.59232108       0.47435336        1 
H       2.54021606       2.71780665       1.70361192        1 
