29
Lattice="0.0 0.0 0.0 0.0 0.0 0.0 0.0 0.0 0.0" Properties=species:S:1:pos:R:3:Z:I:1 pbc="F F F"
C      -0.00900712       1.05295754       0.53841933        6 
C       0.68928992      -0.34741740       0.59751640        6 
C      -1.38244318       1.08172074      -0.12220578        6 
C      -0.12951644      -1.53981538       0.14041401        6 
O      -2.35499601       1.01664057       0.81548938        8 
O      -1.59084396       1.24690774      -1.30142922        8 
O       0.59833011      -2.66939787       0.30545220        8 
O      -1.26647747      -1.54019410      -0.27533153        8 
C      -0.05477833      -3.88550056      -0.10011671        6 
C      -3.68713660       0.91777868       0.28595851        6 
C       1.01387835       1.82730162      -0.34252327        6 
C       2.28783198       2.13745930       0.47531949        6 
C       2.97682745       0.73775238       0.49807932        6 
C       1.94743957      -0.10113971      -0.29246942        6 
O       1.46170735       0.82216806      -1.26500776        8 
H      -0.10594299       1.47281402       1.54218978        1 
H       0.99759911      -0.58148445       1.62177216        1 
H      -0.33598541      -3.83572105      -1.15561629        1 
H      -3.77224943       0.02225785      -0.33578159        1 
H       0.58132133       2.65835745      -0.89756665        1 
H       2.90251568       2.87555387      -0.04692319        1 
H       2.06612045       2.52757293       1.47365968        1 
H       3.93039236       0.75545928      -0.03627833        1 
H       3.15772633       0.35447064       1.50693590        1 
H       2.33434779      -0.99662352      -0.77871188        1 
H       0.67408011      -4.67904030       0.06805915        1 
H      -0.95443161      -4.05550988       0.49844425        1 
H      -3.93179133       1.79778324      -0.31592690        1 
H      -4.34547413       0.85003595       1.15330614        1 
