29
Lattice="0.0 0.0 0.0 0.0 0.0 0.0 0.0 0.0 0.0" Properties=species:S:1:pos:R:3:Z:I:1 pbc="F F F"
C      -0.55140825      -0.89805823       0.57111410        6 
C      -0.43794167       0.66561445       0.57519729        6 
C       0.63773317      -1.64638426      -0.01832607        6 
C       0.83016112       1.24064568      -0.02139421        6 
O       1.65745596      -1.66124578       0.87057456        8 
O       0.65034579      -2.23692832      -1.07253144        8 
O       1.04202818       2.48622231       0.46355336        8 
O       1.55036070       0.71564303      -0.84137697        8 
C       2.18924683       3.16272048      -0.08078263        6 
C       2.87199237      -2.24944986       0.37570518        6 
C      -1.82040264      -1.09630050      -0.29780911        6 
C      -3.07809250      -0.71480476       0.51267786        6 
C      -2.96940296       0.84152382       0.51822997        6 
C      -1.67649745       1.04247391      -0.30657465        6 
O      -1.72176259      -0.02389574      -1.25023020        8 
H      -0.68347215      -1.26037422       1.59495575        1 
H      -0.54282922       1.07443835       1.58256833        1 
H       2.08837414       3.27915354      -1.16351659        1 
H       3.22227695      -1.69327457      -0.49810422        1 
H      -1.84984876      -2.04777297      -0.82547775        1 
H      -3.97802503      -1.04608452      -0.01217263        1 
H      -3.08875272      -1.15238146       1.51565526        1 
H      -3.81636412       1.30286873       0.00306296        1 
H      -2.90502847       1.27234650       1.52172726        1 
H      -1.58896500       1.99974179      -0.82277373        1 
H       2.21717620       4.13536911       0.41140826        1 
H       3.10117117       2.59672107       0.12961383        1 
H       2.70975396      -3.29432405       0.09599005        1 
H       3.58962897      -2.17784801       1.19417730        1 
