29
Lattice="0.0 0.0 0.0 0.0 0.0 0.0 0.0 0.0 0.0" Properties=species:S:1:pos:R:3:Z:I:1 pbc="F F F"
C      -0.40209429      -0.84292919       0.50775685        6 
C      -0.69908364       0.69529575       0.64433878        6 
C       0.91589571      -1.24124022      -0.13667380        6 
C       0.35259103       1.72786462       0.26445962        6 
O       1.77629116      -1.71375898       0.79585499        8 
O       1.15403798      -1.22961143      -1.32278623        8 
O       1.59895604       1.23339903       0.18252577        8 
O       0.08226588       2.89568154       0.07864647        8 
C       2.61398489       2.16987069      -0.21953868        6 
C       3.06025430      -2.10333817       0.28684602        6 
C      -1.58374979      -1.25637471      -0.42711788        6 
C      -2.90420259      -1.27971805       0.37460742        6 
C      -3.19197526       0.24677387       0.51559507        6 
C      -1.97637258       0.84155310      -0.22974238        6 
O      -1.74216570      -0.11018712      -1.27192035        8 
H      -0.45891544      -1.32607705       1.48537204        1 
H      -0.93152202       0.92598342       1.69096165        1 
H       2.68677283       2.98770224       0.50223490        1 
H       3.56660109      -1.24377054      -0.16286483        1 
H      -1.38053186      -2.13287240      -1.04172232        1 
H      -3.68489204      -1.77955981      -0.20509328        1 
H      -2.81122045      -1.79663515       1.33467702        1 
H      -4.11690366       0.52615368       0.00439040        1 
H      -3.26169491       0.58416776       1.55423471        1 
H      -2.10681843       1.83924429      -0.64622495        1 
H       3.54064741       1.59656386      -0.25284537        1 
H       2.37776643       2.57992641      -1.20469005        1 
H       2.95582275      -2.88535890      -0.47072758        1 
H       3.62017085      -2.47177667       1.14737819        1 
