29
Lattice="0.0 0.0 0.0 0.0 0.0 0.0 0.0 0.0 0.0" Properties=species:S:1:pos:R:3:Z:I:1 pbc="F F F"
C      -0.43894253      -0.82438155       0.48738867        6 
C      -0.68031374       0.72303503       0.66193484        6 
C       0.87496951      -1.22383442      -0.15810734        6 
C       0.40367121       1.68067491       0.18263316        6 
O       1.72281874      -1.74509167       0.75706746        8 
O       1.12978620      -1.13829603      -1.33883622        8 
O       1.64326323       1.20714599       0.41650984        8 
O       0.18524599       2.76516535      -0.31093069        8 
C       2.71928784       2.02964661      -0.06781063        6 
C       3.01150895      -2.11196274       0.24255585        6 
C      -1.63851665      -1.17926851      -0.44648038        6 
C      -2.93943208      -1.22520860       0.38361987        6 
C      -3.18147150       0.29571790       0.63138011        6 
C      -1.99245368       0.91365687      -0.13946014        6 
O      -1.80699385       0.00548113      -1.23197960        8 
H      -0.50928057      -1.32817601       1.45365190        1 
H      -0.82162380       0.95271601       1.72511391        1 
H       2.68479201       3.01915764       0.39530490        1 
H       3.52261858      -1.23208122      -0.15984991        1 
H      -1.45680890      -2.02854841      -1.10477667        1 
H      -3.74549512      -1.66125889      -0.21273376        1 
H      -2.84354970      -1.80912265       1.30418472        1 
H      -4.12608587       0.62500485       0.19082144        1 
H      -3.18922241       0.56871474       1.69136460        1 
H      -2.12936127       1.92697161      -0.51280598        1 
H       3.63367823       1.50388724       0.20856628        1 
H       2.64805450       2.13609755      -1.15334742        1 
H       2.91401754      -2.85625796      -0.55289837        1 
H       3.56219991      -2.52226611       1.08987758        1 
