29
Lattice="0.0 0.0 0.0 0.0 0.0 0.0 0.0 0.0 0.0" Properties=species:S:1:pos:R:3:Z:I:1 pbc="F F F"
C      -0.70778050       0.60346772       0.62751702        6 
C       0.83645829       0.37669928       0.68666057        6 
C      -1.47503897      -0.52363647      -0.03593891        6 
C       1.23587795      -1.08569490       0.58347323        6 
O      -2.76109683      -0.52250974       0.38207334        8 
O      -1.04685100      -1.27188957      -0.88592342        8 
O       2.22544881      -1.30118537      -0.30243916        8 
O       0.76932120      -1.94437596       1.30073653        8 
C       2.61341336      -2.67857254      -0.44969952        6 
C      -3.60400452      -1.50520256      -0.24495920        6 
C      -0.75233010       1.83099524      -0.33711617        6 
C      -0.15403402       3.07861383       0.36018759        6 
C       1.37349814       2.78992382       0.22668644        6 
C       1.34321844       1.37591836      -0.39160670        6 
O       0.23858104       1.47934651      -1.30513176        8 
H      -1.15059527       0.82257340       1.60050207        1 
H       1.19410158       0.67538510       1.67924245        1 
H       1.76193103      -3.26934898      -0.79788731        1 
H      -3.20263722      -2.50952666      -0.08482637        1 
H      -1.71596714       1.98203793      -0.82632885        1 
H      -0.44004298       3.98868556      -0.17373336        1 
H      -0.48773874       3.17578999       1.39795373        1 
H       1.84676720       3.48845478      -0.46870355        1 
H       1.91233389       2.83594476       1.17813281        1 
H       2.23690403       1.05947411      -0.92492689        1 
H       3.41383441      -2.68006992      -1.19032420        1 
H       2.96440289      -3.08337175       0.50348515        1 
H      -3.67424039      -1.31995037      -1.32089904        1 
H      -4.58085020      -1.39933270       0.22825201        1 
