29
Lattice="0.0 0.0 0.0 0.0 0.0 0.0 0.0 0.0 0.0" Properties=species:S:1:pos:R:3:Z:I:1 pbc="F F F"
C      -0.59766874       0.71345298      -0.84134874        6 
C      -0.72643342      -0.84686792      -0.62049279        6 
C       0.83274763       1.21012762      -0.68883291        6 
C       0.57437793      -1.59623068      -0.41789982        6 
O       1.05998145       1.82727171       0.48283524        8 
O       1.68512375       1.03034549      -1.53386410        8 
O       1.22616715      -1.18907228       0.69310458        8 
O       0.97256479      -2.48027116      -1.14362448        8 
C       2.49975214      -1.81801784       0.91303398        6 
C       2.42618595       2.20036139       0.71800435        6 
C      -1.59349781       1.22796633       0.22791324        6 
C      -3.04432442       0.90498651      -0.20648391        6 
C      -3.12598705      -0.61761281       0.12319732        6 
C      -1.68465960      -0.87937993       0.61248716        6 
O      -1.37104468       0.32256804       1.31854804        8 
H      -0.89713872       0.96563100      -1.86182452        1 
H      -1.18741010      -1.31322408      -1.49274962        1 
H       3.16989665      -1.61081215       0.07392617        1 
H       2.77927026       2.89109183      -0.05285931        1 
H      -1.41370267       2.24953673       0.55904146        1 
H      -3.75664536       1.48139014       0.38969425        1 
H      -3.22750601       1.12898532      -1.26202263        1 
H      -3.83443068      -0.81037781       0.93344138        1 
H      -3.40905401      -1.23658102      -0.73333478        1 
H      -1.55224172      -1.73938990       1.26975302        1 
H       2.88521326      -1.38133424       1.83508000        1 
H       2.38257383      -2.90015044       1.01725282        1 
H       3.06145933       1.31003499       0.71421069        1 
H       2.43498905       2.67615253       1.69891522        1 
