32
	Energy:      23.0130048
C         -2.15343        0.67129        0.44400
C         -1.01772        0.22198        1.40079
C         -0.91132       -1.32472        1.34022
C         -3.48541       -0.00100        0.79644
C         -3.36563       -1.53286        0.72827
H         -3.78932        0.30995        1.82110
H         -4.26408        0.34761        0.08300
C         -2.25223       -2.00633        1.69138
H         -0.16181       -1.68979        2.07023
H         -0.59281       -1.63284        0.31924
H         -1.88135        0.41843       -0.60479
H         -2.32197        1.76415        0.50891
C          0.34281        0.91770        1.04546
H         -1.29744        0.50736        2.44038
C          0.25295        2.45263        1.15536
H         -0.47218        2.87969        0.43665
H          1.23439        2.91305        0.91055
H         -0.03186        2.75482        2.18611
C          1.49662        0.45160        1.95442
H          1.71024       -0.62750        1.82742
H          1.26593        0.65959        3.02113
H          2.43562        0.98094        1.68372
C         -4.71655       -2.17664        1.07303
H         -5.02718       -1.90923        2.10585
H         -4.65480       -3.28258        0.99385
H         -5.49753       -1.82867        0.36369
N         -2.11035       -3.46391        1.63554
H         -2.53263       -1.72101        2.73120
H         -1.80183       -3.76058        0.68093
H         -1.39283       -3.77462        2.33020
H          0.61841        0.66438       -0.00243
H         -3.09751       -1.82525       -0.31249
