56
Lattice="0.0 0.0 0.0 0.0 0.0 0.0 0.0 0.0 0.0" Properties=species:S:1:pos:R:3:Z:I:1 pbc="F F F"
C       4.08586526      -0.69205760      -0.30507193        6 
C       5.30729019       0.21239442      -0.67434382        6 
C       2.94826304      -0.00896858       0.42092831        6 
C       5.10806986       1.71249967      -0.53654508        6 
O       1.82270973      -0.76190390       0.29605337        8 
O       3.00611830       1.00546374       1.06416059        8 
O       4.11370827       2.11863549      -1.35552131        8 
O       5.77981448       2.45499314       0.13035314        8 
C       3.74582450       3.50686339      -1.25857072        6 
C       0.62585476      -0.29485973       0.94901494        6 
C       4.78063900      -1.69597621       0.67445380        6 
C       5.72393134      -2.62496832      -0.12418729        6 
C       6.93955067      -1.67913932      -0.36761578        6 
C       6.41373414      -0.36586772       0.24543607        6 
O       5.67574731      -0.84069669       1.38596711        8 
H       3.67477562      -1.20721398      -1.17222743        1 
H       5.55233839       0.04957909      -1.72752440        1 
H       4.10462092      -2.19120855       1.36823813        1 
H       6.00304869      -3.49051007       0.47778590        1 
H       5.26575492      -2.98676363      -1.04668948        1 
H       7.81979909      -2.01914648       0.17925348        1 
H       7.20839971      -1.58122806      -1.42124483        1 
H       7.15474371       0.36106804       0.56391647        1 
C      -5.44623117      -0.17869786       0.38194701        6 
C      -4.01687494       0.35292174       0.72943313        6 
C      -5.51901480      -1.46028983      -0.42958645        6 
C      -2.87310501      -0.28816154      -0.02559513        6 
O      -4.92037274      -2.46791728       0.24188822        8 
O      -6.09641343      -1.59805759      -1.47628517        8 
O      -1.71096348      -0.09655792       0.64787344        8 
O      -2.93146196      -0.84050655      -1.09303595        8 
C      -0.51820295      -0.56740468      -0.00938417        6 
C      -4.84506293      -3.72682714      -0.45226644        6 
C      -6.07430447       1.04726090      -0.32976520        6 
C      -6.50156506       2.07678469       0.73496473        6 
C      -5.11125758       2.59771283       1.21341985        6 
C      -4.16369762       1.83752094       0.25625724        6 
O      -4.93766560       1.69190417      -0.93346850        8 
H      -5.97228877      -0.39750095       1.31544032        1 
H      -3.80010938       0.29459023       1.79515856        1 
H      -4.25980524      -3.61010629      -1.36558295        1 
H      -6.80351975       0.79550136      -1.09373562        1 
H      -7.08487846       2.87468378       0.27348805        1 
H      -7.09845904       1.63806785       1.53691826        1 
H      -5.01311075       3.67395435       1.06564258        1 
H      -4.90457975       2.38069889       2.26347094        1 
H      -3.22232380       2.33486610       0.03213870        1 
H      -5.84353636      -4.08808753      -0.70208995        1 
H      -4.35157015      -4.40951791       0.23627423        1 
H       2.94823578       3.64728906      -1.98504022        1 
H       4.59665067       4.14775168      -1.49347016        1 
H       3.39166755       3.72437587      -0.24980533        1 
H       0.71610466       0.76741693       1.17415924        1 
H       0.50223647      -0.84597153       1.88424692        1 
H      -0.37808260      -0.03085679      -0.95068531        1 
H      -0.61587234      -1.63162407      -0.23234035        1 
