56
Lattice="0.0 0.0 0.0 0.0 0.0 0.0 0.0 0.0 0.0" Properties=species:S:1:pos:R:3:Z:I:1 pbc="F F F"
C       4.14401496      -0.84029557       0.08415907        6 
C       4.99946622       0.12060254      -0.80583982        6 
C       2.86311229      -0.25164232       0.63080916        6 
C       4.32111743       1.40241441      -1.25684060        6 
O       1.95439603      -1.24378728       0.83276798        8 
O       2.66138886       0.90305016       0.90150473        8 
O       3.19175479       1.11021239      -1.93793910        8 
O       4.74968164       2.51634337      -1.10550627        8 
C       2.38444708       2.23517834      -2.33587507        6 
C       0.68995912      -0.87118342       1.41616829        6 
C       5.14392236      -1.07480079       1.26268009        6 
C       6.33024972      -1.94116143       0.77770181        6 
C       7.16283298      -0.89051287      -0.02184812        6 
C       6.24716282       0.34558222       0.08523342        6 
O       5.72446248       0.21959773       1.41997235        8 
H       3.89936734      -1.76991991      -0.42697066        1 
H       5.26967811      -0.40714522      -1.72459583        1 
H       4.67929928      -1.39276325       2.19394357        1 
H       6.88739492      -2.32647351       1.63234856        1 
H       6.00785064      -2.79075506       0.17226902        1 
H       8.12002179      -0.69379393       0.46274293        1 
H       7.35764305      -1.18837107      -1.05412905        1 
H       6.71299410       1.31876591      -0.03553131        1 
C      -5.25427242      -0.20779052       0.20327032        6 
C      -3.88683910       0.03967165       0.92184694        6 
C      -5.20606118      -1.00933252      -1.08592291        6 
C      -2.65030294      -0.28046124       0.11026742        6 
O      -4.68724712      -2.23392978      -0.84789256        8 
O      -5.63918726      -0.65663508      -2.15152887        8 
O      -1.60059006      -0.50638946       0.93892437        8 
O      -2.55599764      -0.29162403      -1.08950109        8 
C      -0.33517916      -0.76323274       0.29982764        6 
C      -4.49566441      -3.07020018      -2.00384677        6 
C      -5.78451264       1.23777850       0.02407787        6 
C      -6.35861635       1.72859745       1.36853259        6 
C      -5.04979323       1.90353296       2.19822720        6 
C      -3.97501954       1.58667977       1.13141075        6 
O      -4.57867968       2.01527181      -0.08899525        8 
H      -5.90171425      -0.78002461       0.87399244        1 
H      -3.81603458      -0.48773883       1.87201138        1 
H      -3.78527812      -2.59921282      -2.68485040        1 
H      -6.39998360       1.38141580      -0.85872011        1 
H      -6.87017962       2.68215659       1.23173751        1 
H      -7.06310621       1.02287224       1.81324074        1 
H      -4.93652905       2.92683075       2.55805494        1 
H      -4.99226597       1.23333441       3.05814953        1 
H      -3.01502465       2.08001647       1.26846947        1 
H      -5.44206206      -3.23581392      -2.52044649        1 
H      -4.09846673      -4.00831721      -1.62193906        1 
H       1.53158828       1.81013232      -2.86075533        1 
H       2.94814784       2.89934053      -2.99210506        1 
H       2.05912410       2.78441342      -1.45134486        1 
H       0.78813364       0.07049029       1.95482492        1 
H       0.42829780      -1.67255363       2.10763585        1 
H      -0.09108541       0.05204452      -0.38431786        1 
H      -0.39555653      -1.69152536      -0.27249980        1 
