56
Lattice="0.0 0.0 0.0 0.0 0.0 0.0 0.0 0.0 0.0" Properties=species:S:1:pos:R:3:Z:I:1 pbc="F F F"
C       3.78492716      -1.03276987       0.32823684        6 
C       4.04335125      -0.17540488      -0.97002790        6 
C       2.56770335      -0.62613068       1.13374131        6 
C       3.08871389       0.98015623      -1.24691719        6 
O       1.59487087      -1.55321380       1.00208306        8 
O       2.49044090       0.35664509       1.82601718        8 
O       1.81214064       0.55225638      -1.26886550        8 
O       3.42470592       2.10997171      -1.49413858        8 
C       0.80460533       1.54301330      -1.59346246        6 
C       0.24645764      -1.33555259       1.47742069        6 
C       5.11280948      -0.77106702       1.10231574        6 
C       6.23067288      -1.63125570       0.47715583        6 
C       6.47806948      -0.86019613      -0.85711184        6 
C       5.48544872       0.31560769      -0.71256989        6 
O       5.47288539       0.55313982       0.70232075        8 
H       3.67333146      -2.08342957       0.06411194        1 
H       3.98029683      -0.82402949      -1.84815886        1 
H       5.01933490      -0.81421697       2.18474339        1 
H       7.11536969      -1.61450666       1.11500256        1 
H       5.93537303      -2.67215592       0.32991622        1 
H       7.50085930      -0.48647971      -0.91725354        1 
H       6.28720517      -1.46658334      -1.74555536        1 
H       5.73673738       1.23265562      -1.23658498        1 
C      -4.14682829      -0.46034053       0.14723444        6 
C      -3.79633509       0.73626121       1.09398822        6 
C      -3.02696239      -0.95700669      -0.73980474        6 
C      -2.32128576       1.08391079       1.20041044        6 
O      -3.23184671      -2.25211382      -1.06504549        8 
O      -2.10330311      -0.30774003      -1.16499568        8 
O      -1.64614614       0.02426878       1.70059115        8 
O      -1.82583271       2.14850583       0.94344994        8 
C      -0.19738810       0.10824771       1.71223142        6 
C      -2.29848038      -2.82394144      -2.00335642        6 
C      -5.23811743       0.21784645      -0.74812174        6 
C      -6.52583410       0.42174750       0.08334598        6 
C      -6.13200746       1.66110565       0.94521908        6 
C      -4.66946438       1.87092366       0.50336160        6 
O      -4.72446689       1.54070132      -0.89623828        8 
H      -4.55471120      -1.31131087       0.69024318        1 
H      -4.11218722       0.48374663       2.10986834        1 
H      -1.27945762      -2.75673960      -1.61998460        1 
H      -5.37389150      -0.24302514      -1.72453289        1 
H      -7.36856997       0.64155284      -0.57343871        1 
H      -6.78033909      -0.45757351       0.67832456        1 
H      -6.73246570       2.53278205       0.68233477        1 
H      -6.23107863       1.49042131       2.01914211        1 
H      -4.25499672       2.86648985       0.62928033        1 
H      -2.35589155      -2.30303233      -2.96032741        1 
H      -2.59985061      -3.86303309      -2.11347439        1 
H      -0.13908380       1.00556669      -1.60810986        1 
H       1.02103007       1.98580628      -2.56616767        1 
H       0.78979544       2.32548652      -0.83448835        1 
H       0.12526865      -1.92760874       2.38848522        1 
H      -0.38527165      -1.76087633       0.69891891        1 
H       0.12611267       0.51464495       2.66667008        1 
H       0.12729349       0.77398095       0.91994031        1 
