56
Lattice="0.0 0.0 0.0 0.0 0.0 0.0 0.0 0.0 0.0" Properties=species:S:1:pos:R:3:Z:I:1 pbc="F F F"
C      -4.16179235       0.75114154       0.57806247        6 
C      -4.51749654       0.29731406      -0.88564643        6 
C      -2.88417082       0.16738838       1.13760550        6 
C      -3.52292152      -0.61787775      -1.58624611        6 
O      -2.07190076       1.15787573       1.58924576        8 
O      -2.61468006      -1.00334463       1.21920264        8 
O      -2.29027350      -0.06944360      -1.60328140        8 
O      -3.80114596      -1.65740988      -2.12555482        8 
C      -1.26079416      -0.85445140      -2.24884512        6 
C      -0.75843011       0.76945050       2.04107922        6 
C      -5.41277606       0.21126378       1.34373379        6 
C      -6.61767589       1.13299527       1.04961392        6 
C      -6.96341983       0.70606441      -0.41067476        6 
C      -5.89309496      -0.37658868      -0.66575273        6 
O      -5.73871750      -0.98001001       0.62818470        8 
H      -4.09142383       1.83512712       0.64385211        1 
H      -4.60062102       1.18308784      -1.52177736        1 
H      -5.23716406      -0.02374192       2.39131623        1 
H      -7.43608991       0.90720361       1.73450806        1 
H      -6.37490775       2.19305082       1.14740568        1 
H      -7.96178218       0.27146491      -0.47146639        1 
H      -6.90886952       1.53061097      -1.12476096        1 
H      -6.13413584      -1.13878520      -1.40038581        1 
C       4.94828389       0.25385381       0.02590516        6 
C       3.75123344      -0.09084701       0.97301348        6 
C       4.59564699       0.91254135      -1.29632792        6 
C       2.37643768       0.02329048       0.35601670        6 
O       3.93388988       2.07016329      -1.07760053        8 
O       4.91545600       0.51688514      -2.38655710        8 
O       1.45456798       0.28999104       1.31154037        8 
O       2.09279107      -0.14558997      -0.80325386        8 
C       0.08728967       0.33794357       0.85291142        6 
C       3.44204446       2.74044491      -2.25317994        6 
C       5.63129740      -1.12846802      -0.12923414        6 
C       6.44708945      -1.42763727       1.14425278        6 
C       5.30294723      -1.71494206       2.16598800        6 
C       4.05771589      -1.59953919       1.25736816        6 
O       4.53341427      -2.04915151      -0.01165643        8 
H       5.60550800       0.96130069       0.53934208        1 
H       3.76576077       0.49871875       1.88806969        1 
H       2.73156964       2.09602073      -2.77324077        1 
H       6.13216322      -1.27455974      -1.08138553        1 
H       7.07236376      -2.30838530       0.99217861        1 
H       7.09346308      -0.59812086       1.43812972        1 
H       5.37548538      -2.72339420       2.57510703        1 
H       5.28126454      -1.01203302       3.00129503        1 
H       3.19411550      -2.18702578       1.56264275        1 
H       4.26405822       2.99268664      -2.92406068        1 
H       2.95086885       3.64091500      -1.89078774        1 
H      -0.33032664      -0.31484340      -2.09424157        1 
H      -1.48023631      -0.95630272      -3.31235194        1 
H      -1.20920695      -1.84419982      -1.79484237        1 
H      -0.83974669      -0.02718933       2.78281023        1 
H      -0.34334104       1.66373258       2.50361556        1 
H      -0.20864614      -0.64216280       0.48475773        1 
H      -0.00115344       1.06377065       0.04230748        1 
