56
Lattice="0.0 0.0 0.0 0.0 0.0 0.0 0.0 0.0 0.0" Properties=species:S:1:pos:R:3:Z:I:1 pbc="F F F"
C       3.73000938      -1.06532346       0.26839177        6 
C       4.01839247      -0.21370825      -1.02469651        6 
C       2.55407889      -0.59909111       1.10168577        6 
C       3.10073537       0.97124188      -1.29744844        6 
O       1.58865997      -1.54591873       1.11782009        8 
O       2.49792393       0.43870557       1.71038383        8 
O       1.81267372       0.57795289      -1.33868771        8 
O       3.46991173       2.09352800      -1.52976797        8 
C       0.83775854       1.60255733      -1.65710677        6 
C       0.29162292      -1.28019725       1.70135542        6 
C       5.07978270      -0.87453028       1.03047275        6 
C       6.15336140      -1.77103002       0.37855132        6 
C       6.42649946      -0.98440014      -0.94123112        6 
C       5.47842527       0.22409584      -0.77131953        6 
O       5.48802617       0.43954215       0.64740349        8 
H       3.56143978      -2.10790586       0.00496513        1 
H       3.93237347      -0.85802585      -1.90404384        1 
H       4.99871719      -0.93309016       2.11343082        1 
H       7.04196006      -1.80751990       1.01016631        1 
H       5.81097695      -2.79467617       0.21299762        1 
H       7.46213138      -0.64685701      -0.99526593        1 
H       6.21319001      -1.56608461      -1.84093034        1 
H       5.75796620       1.13929502      -1.28400609        1 
C      -4.14145070      -0.40039689       0.15783795        6 
C      -3.80829434       0.76871196       1.14519782        6 
C      -3.00878366      -0.84378790      -0.74262942        6 
C      -2.33768101       1.13164273       1.24918709        6 
O      -3.13892353      -2.15331968      -1.04821568        8 
O      -2.13250205      -0.14598252      -1.19047102        8 
O      -1.64022295       0.05412553       1.67444948        8 
O      -1.85507820       2.21200039       1.03839009        8 
C      -0.19523921       0.16674482       1.63963613        6 
C      -2.17048489      -2.68180957      -1.97642738        6 
C      -5.24834066       0.28904785      -0.70832666        6 
C      -6.53602732       0.43845515       0.13453398        6 
C      -6.16030078       1.65096275       1.04255215        6 
C      -4.70526580       1.90688209       0.59971341        6 
O      -4.76243022       1.62645559      -0.81037878        8 
H      -4.53044603      -1.27695753       0.67301328        1 
H      -4.11268755       0.47483270       2.15348846        1 
H      -1.16038839      -2.56662702      -1.58042420        1 
H      -5.37991818      -0.13861386      -1.70034265        1 
H      -7.38416429       0.66976734      -0.51129628        1 
H      -6.77473637      -0.46680117       0.69636907        1 
H      -6.78046068       2.51990293       0.81912735        1 
H      -6.24756578       1.43577439       2.10948110        1 
H      -4.30954983       2.90529590       0.75942139        1 
H      -2.24033437      -2.16462144      -2.93449264        1 
H      -2.42213834      -3.73385148      -2.08872305        1 
H      -0.12146114       1.09357254      -1.69057692        1 
H       1.07694939       2.05495406      -2.61995344        1 
H       0.83850947       2.37234592      -0.88490993        1 
H       0.30991688      -1.64109354       2.73338970        1 
H      -0.39151200      -1.90419762       1.12664596        1 
H       0.14611108       0.77678458       2.47095661        1 
H       0.09362520       0.64526245       0.70905108        1 
