56
Lattice="0.0 0.0 0.0 0.0 0.0 0.0 0.0 0.0 0.0" Properties=species:S:1:pos:R:3:Z:I:1 pbc="F F F"
C      -4.13378575       0.58426936       0.75431067        6 
C      -4.47140977       0.42227624      -0.77187790        6 
C      -2.85927584      -0.10036449       1.19407008        6 
C      -3.43518708      -0.27525816      -1.64174525        6 
O      -2.09355421       0.74275081       1.93352038        8 
O      -2.56256074      -1.24584681       0.97021652        8 
O      -2.23303077       0.32824928      -1.53740948        8 
O      -3.66293916      -1.19135822      -2.38876685        8 
C      -1.16896317      -0.24600844      -2.33253696        6 
C      -0.74966648       0.31749992       2.24958840        6 
C      -5.38768261      -0.10997749       1.38143377        6 
C      -6.61097308       0.82152866       1.22661308        6 
C      -6.93713073       0.63316070      -0.28743352        6 
C      -5.81689415      -0.34145324      -0.71026494        6 
O      -5.66134481      -1.16225184       0.45770950        8 
H      -4.07521419       1.63301852       1.03841656        1 
H      -4.59798924       1.41507344      -1.21308339        1 
H      -5.22769188      -0.52178514       2.37572193        1 
H      -7.42950397       0.47216023       1.85730117        1 
H      -6.39129988       1.85586181       1.49832931        1 
H      -7.91403397       0.16919225      -0.42838697        1 
H      -6.92000680       1.56735995      -0.85260440        1 
H      -6.00977056      -0.96723447      -1.57618911        1 
C       4.91419867       0.25443237       0.10281775        6 
C       3.71432628      -0.36995769       0.88795260        6 
C       4.57186074       1.35664785      -0.88433021        6 
C       2.33918546      -0.01480241       0.37202263        6 
O       3.92793659       2.36198353      -0.25196047        8 
O       4.88617226       1.38473794      -2.04542594        8 
O       1.43313834      -0.06148181       1.37797146        8 
O       2.04282521       0.21045289      -0.77451952        8 
C       0.05371967       0.08475194       0.97695376        6 
C       3.46481196       3.43639801      -1.09079720        6 
C       5.54778140      -1.00044348      -0.55194052        6 
C       6.36279038      -1.76190032       0.51470891        6 
C       5.21697240      -2.35956903       1.38877704        6 
C       3.97010188      -1.88908370       0.60544291        6 
O       4.41919371      -1.86897291      -0.74865728        8 
H       5.60314836       0.70899163       0.82036939        1 
H       3.75315016      -0.14955264       1.95330850        1 
H       2.78393591       3.04743212      -1.84916719        1 
H       6.03598266      -0.80925339      -1.50267657        1 
H       6.95287675      -2.54920805       0.04416770        1 
H       7.04019838      -1.11339784       1.07364208        1 
H       5.25744219      -3.44930274       1.40962509        1 
H       5.22536535      -2.00086751       2.42004751        1 
H       3.08861486      -2.52057916       0.69748044        1 
H       4.30544477       3.93363568      -1.57687225        1 
H       2.94695513       4.12255624      -0.42406610        1 
H      -0.26905706       0.30418172      -2.07227587        1 
H      -1.39810754      -0.14312774      -3.39378408        1 
H      -1.05266881      -1.30239740      -2.08963546        1 
H      -0.78254840      -0.58397137       2.86541753        1 
H      -0.32571342       1.13859585       2.82518240        1 
H      -0.26284685      -0.81600088       0.45763000        1 
H      -0.04802942       0.93929736       0.30697058        1 
