56
Lattice="0.0 0.0 0.0 0.0 0.0 0.0 0.0 0.0 0.0" Properties=species:S:1:pos:R:3:Z:I:1 pbc="F F F"
C       3.88221500      -0.90726100       0.45794774        6 
C       4.90741562      -0.28638768      -0.54890507        6 
C       2.50318932      -0.27766458       0.45020599        6 
C       4.33690061       0.67206965      -1.58148578        6 
O       1.59312553      -1.19945426       0.83751078        8 
O       2.25778521       0.87178201       0.19275390        8 
O       3.38444495       0.04987712      -2.30894838        8 
O       4.71792442       1.79474772      -1.78605754        8 
C       2.66329999       0.87592242      -3.24363495        6 
C       0.17369563      -0.93447458       0.95946700        6 
C       4.59585537      -0.56920565       1.80777717        6 
C       5.85453093      -1.45529518       1.96065332        6 
C       6.84462299      -0.73662984       0.99259877        6 
C       5.93594052       0.36377461       0.41011008        6 
O       5.13309865       0.72739268       1.54781407        8 
H       3.77169488      -1.98172637       0.32391688        1 
H       5.36522828      -1.09548967      -1.12499473        1 
H       3.93611236      -0.53373482       2.67249769        1 
H       6.21211793      -1.43078695       2.99099484        1 
H       5.66550810      -2.49681596       1.69257066        1 
H       7.67532678      -0.28815118       1.53893424        1 
H       7.25598336      -1.39683862       0.22650622        1 
H       6.42531429       1.24569261       0.00804675        1 
C      -4.49563694      -0.48171721       0.37984904        6 
C      -4.01270633       0.88525827       0.96885269        6 
C      -3.57393660      -1.14265018      -0.62195912        6 
C      -2.57768786       1.28363348       0.66760044        6 
O      -3.82452941      -2.47274884      -0.66331773        8 
O      -2.76679609      -0.59964351      -1.33276311        8 
O      -1.73297572       0.35989114       1.18148019        8 
O      -2.22701981       2.29815456       0.12816060        8 
C      -0.32631178       0.50695442       0.86372949        6 
C      -3.09167485      -3.22397065      -1.64936610        6 
C      -5.79825711      -0.01559793      -0.35306348        6 
C      -6.88306964       0.33453791       0.69087328        6 
C      -6.37364214       1.72054851       1.19688474        6 
C      -5.06609763       1.86306333       0.39156859        6 
O      -5.41364283       1.25869884      -0.86722019        8 
H      -4.72143917      -1.20867318       1.15846983        1 
H      -4.08004951       0.83732794       2.05917309        1 
H      -2.01741503      -3.10504602      -1.50080624        1 
H      -6.11767696      -0.66598519      -1.16492915        1 
H      -7.85629730       0.41947246       0.20550804        1 
H      -6.96333030      -0.41514006       1.48069539        1 
H      -7.06898758       2.51846021       0.93344881        1 
H      -6.21100437       1.75295385       2.27602607        1 
H      -4.69707556       2.87044645       0.22490186        1 
H      -3.35283844      -2.88955348      -2.65476067        1 
H      -3.38603094      -4.26060663      -1.50192880        1 
H       1.92860043       0.21918835      -3.70423635        1 
H       3.33960839       1.28533181      -3.99534858        1 
H       2.16970411       1.68996762      -2.71120206        1 
H      -0.10831462      -1.34762924       1.92897709        1 
H      -0.31316885      -1.52233411       0.17869425        1 
H       0.13730641       1.17577882       1.58719800        1 
H      -0.22116621       0.93238273      -0.12892391        1 
