56
Lattice="0.0 0.0 0.0 0.0 0.0 0.0 0.0 0.0 0.0" Properties=species:S:1:pos:R:3:Z:I:1 pbc="F F F"
C       4.10476633      -0.79863051      -0.18697190        6 
C       5.18674293       0.20293220      -0.71158594        6 
C       2.93165668      -0.16900047       0.53130805        6 
C       4.80468605       1.67340457      -0.71352576        6 
O       1.85612348      -0.99846009       0.45816134        8 
O       2.93372185       0.87532207       1.12791883        8 
O       3.70428298       1.86322682      -1.47375863        8 
O       5.42422945       2.56198607      -0.19005107        8 
C       3.17133038       3.20070050      -1.48487038        6 
C       0.63885336      -0.57948943       1.10732375        6 
C       4.96373180      -1.60255715       0.84398097        6 
C       5.98990541      -2.48365287       0.09314312        6 
C       7.06219972      -1.42249868      -0.30608408        6 
C       6.39295651      -0.13041313       0.20192199        6 
O       5.76849651      -0.57462051       1.42044112        8 
H       3.71726885      -1.44296431      -0.97471950        1 
H       5.40799664      -0.04203738      -1.75399279        1 
H       4.38688564      -2.10537589       1.61780292        1 
H       6.40162919      -3.23736832       0.76553199        1 
H       5.55054294      -3.00025707      -0.76284659        1 
H       8.00112170      -1.59192323       0.22256232        1 
H       7.27179288      -1.40162784      -1.37740256        1 
H       7.04238706       0.71438628       0.40969803        1 
C      -5.39132823      -0.14450672       0.33713240        6 
C      -3.95534674       0.30823759       0.76411401        6 
C      -5.47894352      -1.34004429      -0.59553690        6 
C      -2.81078983      -0.31801672      -0.00200178        6 
O      -4.91908190      -2.42389134      -0.01578266        8 
O      -6.03775187      -1.36001076      -1.66104239        8 
O      -1.67735369      -0.27272108       0.74177041        8 
O      -2.84344771      -0.74444070      -1.12689838        8 
C      -0.47728164      -0.73338638       0.09035891        6 
C      -4.86245633      -3.60971978      -0.83019644        6 
C      -5.96306534       1.15930568      -0.27430369        6 
C      -6.37089627       2.10996381       0.87080861        6 
C      -4.97077544       2.55143774       1.39879114        6 
C      -4.03621380       1.82874843       0.40132699        6 
O      -4.79426844       1.80739285      -0.80707347        8 
H      -5.94930864      -0.43190981       1.23242162        1 
H      -3.77560383       0.16504727       1.82853427        1 
H      -4.25770890      -3.41912397      -1.71805642        1 
H      -6.68953532       1.00053319      -1.06512456        1 
H      -6.93097351       2.95844584       0.47571070        1 
H      -6.98351216       1.61979445       1.63012565        1 
H      -4.83702609       3.63137529       1.32377545        1 
H      -4.78546132       2.25834255       2.43399129        1 
H      -3.07268800       2.30456958       0.22999157        1 
H      -5.86497089      -3.91713532      -1.13089486        1 
H      -4.39954126      -4.37034035      -0.20507686        1 
H       2.30825972       3.16410879      -2.14615420        1 
H       3.91365964       3.90670624      -1.85922983        1 
H       2.87234703       3.48588490      -0.47505258        1 
H       0.73308400       0.45319131       1.44081405        1 
H       0.48035830      -1.22404621       1.97450709        1 
H      -0.28250933      -0.12733526      -0.79761628        1 
H      -0.60350130      -1.77125034      -0.22403477        1 
