56
Lattice="0.0 0.0 0.0 0.0 0.0 0.0 0.0 0.0 0.0" Properties=species:S:1:pos:R:3:Z:I:1 pbc="F F F"
C       3.87606803      -0.31663495      -0.64032359        6 
C       5.18488842       0.51516079      -0.41790647        6 
C       2.69392299       0.08061303       0.21605173        6 
C       5.05252979       1.74792873       0.46024101        6 
O       1.54281903      -0.13305947      -0.46948688        8 
O       2.73306785       0.47244829       1.35342578        8 
O       4.13138436       2.58867960      -0.05929742        8 
O       5.71419078       1.99299096       1.43483782        8 
C       3.83083999       3.75604444       0.72752974        6 
C       0.30216093       0.14961600       0.20754604        6 
C       4.37902547      -1.73218923      -0.20394595        6 
C       5.33581513      -2.29085352      -1.28238647        6 
C       6.62902146      -1.46910473      -0.98626325        6 
C       6.14110650      -0.55719161       0.15836461        6 
O       5.25086509      -1.42412259       0.88249530        8 
H       3.55869988      -0.31151545      -1.68148640        1 
H       5.53654330       0.88289251      -1.38608116        1 
H       3.59357832      -2.40864423       0.12776207        1 
H       5.49599489      -3.35864002      -1.12710670        1 
H       4.95375979      -2.14941491      -2.29520452        1 
H       7.43601601      -2.11382445      -0.63572200        1 
H       6.99202120      -0.90872878      -1.85003914        1 
H       6.89813132      -0.16401914       0.83005014        1 
C      -4.58234805      -0.20166834       0.73106864        6 
C      -4.26913928       1.06062137      -0.14135830        6 
C      -3.73759979      -1.42538166       0.44994646        6 
C      -3.00703782       0.99860165      -0.98337941        6 
O      -3.70628677      -2.22388174       1.54102608        8 
O      -3.20626121      -1.70889899      -0.59407710        8 
O      -1.92783926       0.80511423      -0.18954964        8 
O      -2.94145521       1.16947617      -2.17150940        8 
C      -0.68200378       0.56406229      -0.86970922        6 
C      -3.00998516      -3.47556927       1.38614227        6 
C      -6.05403008      -0.48098593       0.27862570        6 
C      -6.98743987       0.60939107       0.85423751        6 
C      -6.67184189       1.80576034      -0.09618550        6 
C      -5.56634702       1.19268644      -0.97885671        6 
O      -6.00313033      -0.17091816      -1.11367742        8 
H      -4.52990592       0.01005886       1.79788095        1 
H      -4.13951821       1.92043655       0.52162628        1 
H      -1.96762538      -3.30016168       1.11622382        1 
H      -6.38381395      -1.50790998       0.42202365        1 
H      -8.02878201       0.29589204       0.76988348        1 
H      -6.78247875       0.82332218       1.90512341        1 
H      -7.53833891       2.06672738      -0.70500026        1 
H      -6.34283295       2.70311612       0.43154627        1 
H      -5.42029855       1.63006700      -1.96182298        1 
H      -3.48351777      -4.08183582       0.61245714        1 
H      -3.07759348      -3.96632708       2.35434371        1 
H       3.09233005       4.31126818       0.15313853        1 
H       4.72795055       4.35670208       0.88296744        1 
H       3.42180996       3.45386890       1.69276905        1 
H       0.45226297       0.93765111       0.94543346        1 
H      -0.03707664      -0.75357819       0.72065162        1 
H      -0.35136479       1.47156681      -1.37944381        1 
H      -0.82361904      -0.22488972      -1.60995639        1 
