32
-768.040026560483, 28.38
C        -0.3132279332   -0.9260532522    0.5927651012
C        -0.8145122249    0.5761716734    0.6734116337
C         1.0066629000   -1.1721268865   -0.1039471994
C         0.0284475620    1.5791585168   -0.1090643893
O         1.9337839962   -1.6166759721    0.7744313567
O         1.2270963685   -1.0393776516   -1.2836432411
O         1.3278495775    1.5053300341    0.2522951414
O        -0.3937002741    2.3882056040   -0.8968166651
C         2.2372697342    2.3523037527   -0.4728326244
C         3.2379280353   -1.8794779699    0.2290294567
C        -1.5216911106   -1.6559925759   -0.1042064579
C        -1.6705513804   -1.1012508027   -1.5121772073
C        -2.1336063757    0.1474977645   -1.4074326191
C        -2.2732927840    0.4588496829    0.0746272614
C        -2.6928211075   -0.9333615183    0.5989402756
C        -0.8339762861    1.0730468310    2.1352296438
H         2.2729117687    2.0452931638   -1.5193646280
H         3.6600885601   -0.9690133416   -0.1996209253
H        -2.2606437754    0.8706322793   -2.1991822056
H         3.2064476994    2.2105193658    0.0006970459
H         1.9250955365    3.3950799934   -0.4088218073
H         3.8399352543   -2.2231893791    1.0674542645
H         3.1834325980   -2.6465769787   -0.5451468552
H        -2.9031017951    1.3094392738    0.3303526585
H        -1.4713623894   -2.7409719908   -0.0125013517
H        -1.4855349072    0.4468434655    2.7471795623
H         0.1684661317    1.0506195246    2.5660443656
H        -1.2067776966    2.1000401028    2.1857464488
H        -3.6643711004   -1.2441423079    0.2120991464
H        -2.6848569738   -1.0335539879    1.6869129384
H        -1.3473174030   -1.6070316802   -2.4103909729
H        -0.2107437869   -1.3059273992    1.6096002898
