30
-766.875074406262, 20.98
C         0.2377691207   -0.7214632106   -0.1071997374
C        -0.9935225448   -0.0453838547   -0.0293897554
C         1.4882831019    0.0572074907   -0.3934245266
C        -1.0387372837    1.4467833221   -0.1302964301
O         2.4137807517   -0.1095924286    0.5686124579
O         1.6609593104    0.7287512985   -1.3821269060
O        -0.0849477652    2.0220525271    0.6326719210
O        -1.8329843739    2.0736176097   -0.7884838884
C         0.0606366185    3.4462711117    0.4886799505
C         3.6605029395    0.5806453888    0.3629840775
C         0.2983283539   -2.1228384947   -0.0412006822
C        -0.9024009417   -2.8150114663    0.1235090762
C        -2.1174505729   -2.1486336336    0.2160753433
C        -2.1969619461   -0.7575692801    0.1312013263
H         0.3570237377    3.6871067588   -0.5334985567
H         4.1398333929    0.2381602900   -0.5554506714
H        -3.0297999448   -2.7203980097    0.3491552406
H        -0.8754302835    3.9533629950    0.7253666374
H         0.8402498072    3.7296930877    1.1922838017
H         4.2714451194    0.3395205181    1.2298564009
H         3.4898750160    1.6561326155    0.2986854793
H        -0.8845107946   -3.8987975403    0.1724980357
C        -3.5460409296   -0.0846630323    0.2208229737
C         1.5964519657   -2.8849069268   -0.1686891884
H         2.1889526087   -2.5328634529   -1.0172117404
H         1.4002221251   -3.9482484529   -0.3171971308
H         2.2116907238   -2.7707080994    0.7270783967
H        -3.8302855915    0.3535008148   -0.7379187044
H        -3.5504358662    0.7281461831    0.9510064822
H        -4.3080033326   -0.8092692368    0.5140081322
