29
-728.712726878712, 21.39
C        -0.2983982550    0.7582349194   -0.7656901268
C        -0.7915057608   -0.7314927332   -0.7961133592
C         0.9438389224    1.0579715309    0.0394138637
C         0.0908046714   -1.7647103651   -0.1270121339
O         1.5537857417    2.1662010095   -0.4414550958
O         1.3382286071    0.4546854236    1.0067946477
O         1.2718469506   -1.8574688337   -0.7769438403
O        -0.2192753155   -2.4661684489    0.8025383140
C         2.2456913241   -2.7373161369   -0.1885851126
C         2.7184725241    2.6068808063    0.2803225945
C        -1.5668155699    1.5103330616   -0.1727724227
C        -1.7281549367    1.0533033740    1.2679855622
C        -2.1264056512   -0.2227559160    1.2446556366
C        -2.2431916952   -0.6403027652   -0.2129515559
C        -2.6903268401    0.6945569507   -0.8518066084
H         2.4792935830   -2.4069897392    0.8244312026
H         3.4884785952    1.8338049937    0.2676626071
H        -2.2212495493   -0.8975746847    2.0823750272
H         3.1234481951   -2.6674188880   -0.8276916308
H         1.8709140155   -3.7616932281   -0.1616845283
H         3.0617569778    3.4984540362   -0.2397230002
H         2.4618312444    2.8395909223    1.3150265439
H        -2.8448014201   -1.5250239899   -0.4145124347
H        -1.5386701071    2.5842029194   -0.3500326059
H        -3.6842501685    1.0057602685   -0.5263667671
H        -2.6389472459    0.7017300136   -1.9450646368
H        -1.4356580325    1.6295460262    2.1354036288
H        -0.1269545863    1.1194330471   -1.7798760827
H        -0.8471929817   -1.0337952026   -1.8463488908
