29
-765.639117150324     
C        -0.3863553065    0.6456121161   -0.6222143192
C        -0.6084698679   -0.8968577973   -0.4948418947
C         0.8628317405    1.1837535247    0.0468285628
C         0.5762748924   -1.7076626195    0.0053679530
O         1.1545466727    2.4095047494   -0.4473401391
O         1.4932727432    0.6565369505    0.9360083898
O         1.6162171454   -1.5765406404   -0.8488391954
O         0.5772164904   -2.4371726064    0.9695637124
C         2.8325564672   -2.2106222514   -0.4217485677
C         2.2793687900    3.0615647798    0.1672877844
C        -1.6337807014    1.1586421211    0.1690865149
C        -2.9245578162    0.8714456571   -0.6368038660
C        -3.1123722315   -0.6537049377   -0.3660461356
C        -1.8384703158   -0.9588137306    0.4478092337
O        -1.7010647270    0.2280977407    1.2496952854
H        -0.3981435555    0.9882465435   -1.6589300409
H        -0.8468706080   -1.3017762756   -1.4848927105
H         3.1724644487   -1.7623385789    0.5160949976
H         2.1112783957    3.1874946653    1.2405156811
H        -1.5347373142    2.1751957078    0.5528743577
H        -3.7574994770    1.4562870617   -0.2375231560
H        -2.8185627068    1.1147243768   -1.6985596286
H        -4.0004452652   -0.8415461185    0.2433631906
H        -3.1909724634   -1.2503372071   -1.2801359649
H        -1.8602150219   -1.8371342162    1.0903683620
H         2.6792822441   -3.2833546798   -0.2748817051
H         3.5545504396   -2.0305609461   -1.2194480041
H         2.3635628371    4.0299032522   -0.3271429481
H         3.1891568178    2.4726085684    0.0194607668
