24
-688.216107122979, 30.94
C        -0.5138003480   -0.7105204694   -0.0217524218
C        -0.9154508504    0.6359879094   -0.0626305579
C         0.9110263024   -1.0848108797   -0.2669030354
C         0.0529491855    1.7754488598   -0.1675598381
O         1.2140941585   -2.2862104185    0.2686746687
O         1.6984395948   -0.4233894959   -0.9015315208
O         0.9749588972    1.7236470763    0.8091161779
O        -0.0319142850    2.6620863376   -0.9811445921
C         2.0341684092    2.6941576433    0.7252434757
C         2.5451482980   -2.7701914936    0.0131037440
C        -1.4813015406   -1.7105274870    0.1276510554
C        -2.8310911450   -1.3842412512    0.2211397276
C        -3.2275908677   -0.0505091740    0.1580478756
C        -2.2720942613    0.9525826823    0.0133392031
H         2.6200778872    2.5185771786   -0.1785201201
H         2.7088211937   -2.8842090807   -1.0596606923
H        -4.2777433620    0.2108557063    0.2212126898
H         1.6283195541    3.7063186980    0.7090490391
H         2.6424583734    2.5358898863    1.6128774579
H         2.6033489270   -3.7331300028    0.5155362604
H         3.2855935339   -2.0791565319    0.4180881386
H        -3.5698544296   -2.1697942453    0.3307901724
H        -2.5717916372    1.9924581922   -0.0360063983
H        -1.1667853162   -2.7455270711    0.1514610310
