27
-727.547284845647, 18.67
C         0.3622741997   -0.9084922697   -0.0180496405
C        -0.7960575943   -0.1157808780   -0.0841152820
C         1.7033177159   -0.2725305495   -0.1622505275
C        -0.7250485993    1.3757349285   -0.2708606199
O         2.7086507088   -1.1439325246    0.0670080326
O         1.8920345973    0.8849091461   -0.4599881662
O        -0.4137019553    1.9921366317    0.8815240491
O        -0.9968445093    1.9419240207   -1.2996534952
C        -0.2065269033    3.4143482975    0.7917037521
C         4.0406869129   -0.6215861848   -0.0786877422
C         0.2466886654   -2.2943066103    0.1454602477
C        -1.0077092713   -2.8809211907    0.2429426354
C        -2.1509120692   -2.0895470684    0.1728424690
C        -2.0686876454   -0.7047833005    0.0040249995
H         0.6342630515    3.6182949732    0.1271403005
H         4.1965489819   -0.2518698164   -1.0932151204
H        -3.1294105106   -2.5520487379    0.2500422012
H        -1.1015596575    3.9107792900    0.4143185416
H         0.0166459759    3.7387539484    1.8056168013
H         4.7025332896   -1.4589893046    0.1308981073
H         4.2112851770    0.1899489274    0.6301160196
H        -1.0975990299   -3.9535311324    0.3712692241
H         1.1425186397   -2.8974791990    0.1910247408
C        -3.3262072443    0.1267273548   -0.0850121689
H        -3.4448117050    0.5485175003   -1.0863599483
H        -3.3031922231    0.9645405652    0.6174126180
H        -4.2061028545   -0.4781659810    0.1400268893
