36
-919.746758671088, 31.14
C        -0.9840390230   -0.8198499672   -0.5910378095
C         0.3415196453    0.0077267759   -0.6726809267
C        -2.1002199721   -0.2039665025    0.2255330028
C         0.1977830546    1.4710276500   -0.2760505610
O        -3.2732737689   -0.8048540768   -0.0828041587
O        -1.9951537563    0.6497674425    1.0686609820
O        -0.6754556705    2.0582760747   -1.1306077475
O         0.7764179282    2.0716129572    0.5900351939
C        -1.0138680414    3.4247481885   -0.8354433967
C        -4.4180663834   -0.3863523896    0.6842894498
C        -0.4757173741   -2.1003655793    0.1433196096
C         0.4179750340   -2.9203125630   -0.8099781817
C         1.7252611895   -2.0780440328   -0.7873830885
C         1.3228946564   -0.9020367967    0.1404260765
O         0.4516277428   -1.5560889821    1.0856909575
H        -1.3828903433   -1.0614876962   -1.5753693832
H         0.6610425693    0.0426757998   -1.7158379405
H        -0.1250232437    4.0563225037   -0.8685105083
H        -4.5897789447    0.6837463873    0.5600830449
H         0.5792059619   -3.9219813223   -0.4088280942
H        -0.0195823592   -3.0211556478   -1.8051627653
H         2.5470962220   -2.6320717563   -0.3309823885
H         2.0521932950   -1.7387240428   -1.7701599005
H        -1.7227608513    3.7217937440   -1.6056887913
H        -1.4691887320    3.4883765873    0.1540674012
H        -4.2679954894   -0.6052755450    1.7426930892
H        -5.2556715795   -0.9572422984    0.2896582838
H        -1.2509434864   -2.6583387471    0.6642752713
C         2.4745614763   -0.2471178731    0.8706250085
O         3.2820903362    0.3847203866   -0.1109167977
H         3.0446704779   -1.0217115018    1.4039559167
H         2.0955712854    0.4780867152    1.5927050091
C         4.1917594819    1.3183982198    0.4428611152
H         4.7519228814    1.7505907323   -0.3871063249
H         4.8952644419    0.8311458416    1.1328222028
H         3.6577187083    2.1146732083    0.9756610755
