35
-844.529286713129, 23.79
C         0.0267017980    0.6694730622    0.6212897726
C         0.5244833622   -0.8158278527    0.6625233632
C        -1.2671061144    0.8972682482   -0.1272680978
C        -0.4880246668   -1.8221539133    0.1331861879
O        -1.9922978808    1.8671244438    0.4758400305
O        -1.6106430320    0.3516594231   -1.1460774927
O        -1.6081229148   -1.7498908161    0.8954461761
O        -0.3522157159   -2.6126951788   -0.7617519577
C        -2.7157622359   -2.5577075505    0.4576668816
C        -3.2196342302    2.2346332448   -0.1805950347
C         1.2278081494    1.3685394905   -0.1245446344
C         2.3998678068    1.4561833611    0.8862985738
C         2.8771624042   -0.0175547713    0.9329440464
C         1.9046693332   -0.7097919274   -0.0656268977
O         1.6644500351    0.3424294488   -1.0215062902
H        -0.0958947116    1.0815738122    1.6211520520
H         0.6741272570   -1.1026904915    1.7065661642
H        -2.4461373055   -3.6148181352    0.4568149529
H        -3.8742665871    1.3675058950   -0.2785843284
H         3.1761072340    2.1141065517    0.4905263598
H         2.0876101520    1.8506799314    1.8551207445
H         3.9004858533   -0.1135628424    0.5662166071
H         2.8370154614   -0.4613472178    1.9298651132
H        -3.5140676816   -2.3674120986    1.1720685260
H        -3.0176961597   -2.2588019260   -0.5474259320
H        -3.0153864784    2.6425005619   -1.1719779811
H        -3.6751617645    2.9890533647    0.4570482686
C         2.4762133131   -1.9332539804   -0.7490471198
H         3.4658997666   -1.6933962428   -1.1449426639
H         2.5788657185   -2.7545980974   -0.0347362575
H         1.8310687405   -2.2669969714   -1.5571804289
C         0.9098624754    2.6421761520   -0.8766533833
H         1.8131082213    3.0188869893   -1.3608772894
H         0.1585334353    2.4604024351   -1.6472435359
H         0.5353839505    3.4081246406   -0.1929858145
