32
-805.194096988436
C        -0.0507027545    0.8171273157    0.6413540822
C         0.6594081062   -0.5750353464    0.5907910115
C        -1.3340767951    0.9247318445   -0.1539657786
C        -0.2320024742   -1.7209696284    0.1373250896
O        -2.0522132719    1.9894276841    0.2723854057
O        -1.6744020406    0.2220703032   -1.0716338003
O        -1.2926836715   -1.8044709396    0.9791795288
O        -0.0372316161   -2.5021656658   -0.7552662139
C        -2.2933653993   -2.7759775214    0.6254495412
C        -3.2678821909    2.2569225649   -0.4523373404
C         1.0325079138    1.7092375268   -0.0380979734
C         2.2402506220    1.8629309994    0.9118643812
C         2.9217125743    0.4763684363    0.7426282324
C         1.9541101940   -0.2463668363   -0.2364944397
O         1.5211889096    0.8554622702   -1.0690513488
H        -0.2558290202    1.1441631111    1.6598254871
H         0.9422542978   -0.8471530113    1.6115584574
H        -1.8600340091   -3.7758755749    0.5783235714
H        -3.0505690724    2.4535355244   -1.5032672160
H         2.8885812390    2.6722971748    0.5732051151
H         1.9365929802    2.0791684800    1.9382082669
H         3.9024502014    0.5736186639    0.2740096618
H         3.0489891212   -0.0639841013    1.6826446975
H        -3.0443320034   -2.7198293752    1.4109012348
H        -2.7281024572   -2.5215930386   -0.3425208783
H        -3.7010256402    3.1349402489    0.0216906582
H        -3.9479955310    1.4068668417   -0.3802614452
H         0.6489379656    2.6330026366   -0.4666015618
C         2.5957467858   -1.3256219363   -1.0783681662
H         3.4856671496   -0.9161493781   -1.5625788294
H         2.8991551086   -2.1669289077   -0.4500282544
H         1.9075285013   -1.6990814279   -1.8318618422
