29
-765.862586143486, 23.82
C         0.3550513560   -0.6496301527   -0.5947131293
C         0.6381528956    0.8835979966   -0.4797217563
C        -0.9021050358   -1.1450770964    0.0870204857
C        -0.5038520653    1.7490737174    0.0237728267
O        -1.2608448110   -2.3429861248   -0.4314569619
O        -1.4890617278   -0.6135485867    0.9945292240
O        -1.5637707408    1.6371439402   -0.8064556887
O        -0.4616958684    2.4938329290    0.9678445060
C        -2.7613100113    2.3210824494   -0.3954839709
C        -2.3979639686   -2.9801829515    0.1809340342
C         1.5980499071   -1.2095130023    0.1705223316
C         2.8753652721   -0.9792619196   -0.6709250267
C         3.1279013134    0.5404243072   -0.4238630675
C         1.8947097231    0.9039011785    0.4276315825
O         1.7324812694   -0.2730230077    1.2400706148
H         0.3380653977   -0.9915361498   -1.6286497810
H         0.8721220820    1.2688749621   -1.4762346065
H        -3.1002286243    1.9271531331    0.5638724062
H        -3.2880732472   -2.3593567421    0.0679016078
H         1.4689151758   -2.2148521471    0.5660310839
H         3.6951130994   -1.5891071814   -0.2891289973
H         2.7298227878   -1.2282534218   -1.7240295471
H         4.0418046635    0.7024079958    0.1493034008
H         3.1936042667    1.1223304725   -1.3453341232
H         1.9741621180    1.7806690256    1.0631642174
H        -2.5816851097    3.3935100479   -0.3074519103
H        -3.4934892038    2.1181593588   -1.1743021771
H        -2.2136747433   -3.1531110052    1.2422633041
H        -2.5205209112   -3.9235726781   -0.3466360555
