30
-766.655307467818     
C         0.3495165043   -0.6730392695   -0.0747700061
C        -0.9614094426   -0.1560952885   -0.0418463576
C         1.4757832262    0.2800496902   -0.3405480922
C        -1.1995698817    1.3209185573   -0.1438760918
O         2.5369691567    0.0594701100    0.4634113585
O         1.4544931999    1.1480809282   -1.1893832159
O        -0.4580606470    2.0027860941    0.7565323321
O        -1.9924739230    1.8436399686   -0.8971283069
C        -0.4998064093    3.4322840232    0.6150091037
C         3.6646309400    0.9194138523    0.2287582677
C         0.5777134220   -2.0602376869    0.0232898901
C        -0.5385970974   -2.8900490747    0.1651217628
C        -1.8309177702   -2.3773097845    0.2014920214
C        -2.0750381294   -1.0060571066    0.0888613334
H        -0.0591883279    3.7194825157   -0.3441319702
H         4.0322442760    0.8006876504   -0.7944945629
H        -2.6722344417   -3.0574157043    0.3107297468
H        -1.5296470347    3.7952789853    0.6640948775
H         0.0900448454    3.8261898856    1.4434393866
H         4.4219255941    0.6107313644    0.9499088174
H         3.3842225522    1.9648587073    0.3835068248
H        -0.3910497254   -3.9648685336    0.2369454492
C        -3.4931450080   -0.4842128154    0.1088312783
C         1.9545644771   -2.6821784624   -0.0508338001
H         2.5345276068   -2.2886226201   -0.8918869671
H         1.8751568379   -3.7667013044   -0.1738263706
H         2.5331367452   -2.4797322798    0.8557703269
H        -3.7584644532   -0.0407907659   -0.8551332997
H        -3.6278922256    0.3008841518    0.8609142561
H        -4.1965817008   -1.2924099608    0.3316286497
