43
-1073.63377507960, 31.47
C        -0.6303722745    0.2312218136    0.6880925157
C         0.8594209276   -0.2814845133    0.6258030719
C        -1.6563186652   -0.7247704132    0.1223205056
C         1.0112451480   -1.5788049214   -0.1535247210
O        -2.4876613888   -1.1651224965    1.0870999288
O        -1.7414529788   -1.0654321560   -1.0342764898
O         0.4362342076   -2.5819512776    0.5539702802
O         1.5446907804   -1.7495934999   -1.2176539705
C         0.3701561767   -3.8582334002   -0.1072920578
C        -3.5099343971   -2.0814108766    0.6627485234
C        -0.5092852220    1.5875498477   -0.1023651236
C         0.0511733138    2.6223781962    0.8954961927
C         1.5071504942    2.1054326743    1.0618066716
C         1.5635380894    0.9575308393    0.0114407748
O         0.6090261818    1.3784219536   -0.9756541976
H        -0.9142837767    0.4238123471    1.7195690208
H         1.2198615461   -0.4864351400    1.6335598547
H         1.3701091784   -4.2123720400   -0.3610869309
H        -3.0642827772   -2.9789181496    0.2301344471
H         0.0308641551    3.6139669908    0.4391341248
H        -0.5158470288    2.6626177555    1.8256896019
H         2.2405501420    2.8722971494    0.8086798024
H         1.7329646403    1.7505147290    2.0681976597
H        -0.1036301178   -4.5301049526    0.6055094160
H        -0.2272767171   -3.7741619172   -1.0167830158
H        -4.1601793045   -1.6123392270   -0.0775725954
H        -4.0705155129   -2.3280080366    1.5618499093
C        -1.7108329622    1.9999139172   -0.9270938483
C         2.9219435074    0.7477184403   -0.6282273256
O         3.7479625982    0.1227205941    0.3445062725
H         3.3390874688    1.7225024630   -0.9200975430
H         2.8228218298    0.1211432061   -1.5172357361
C         4.9907305737   -0.3014271194   -0.1835497523
H         5.5438355059   -0.7696305917    0.6312402638
H         5.5730264124    0.5469448758   -0.5699828685
H         4.8467414961   -1.0307016096   -0.9912606453
O        -2.8464109966    1.9574439031   -0.0770536377
H        -1.8250383331    1.3064239523   -1.7674260938
H        -1.5577647712    3.0130054055   -1.3248111820
C        -4.0636143412    2.1574517464   -0.7713907212
H        -4.8661213628    2.1034574058   -0.0353527378
H        -4.2153159215    1.3808955555   -1.5331473849
H        -4.0904667978    3.1414916368   -1.2593754265
