24
-688.216126467103
C     -0.02223490     -0.88986223     -0.02947834
C     -1.11176530     -0.00194469     -0.07632491
C      1.36716147     -0.39888196     -0.27324595
C     -0.95599868      1.48546026     -0.18278254
O      2.29169931     -1.21333229      0.27705573
O      1.64709579      0.58461498     -0.91716942
O     -0.15950160      1.96406200      0.78808433
O     -1.53301293      2.16909718     -0.99228727
C      0.15712692      3.36565083      0.70593623
C      3.66516272     -0.85716631      0.03555242
C     -0.26187099     -2.25942560      0.12772296
C     -1.56236081     -2.74703041      0.22125073
C     -2.64010306     -1.86739010      0.15059922
C     -2.41232579     -0.50181151     -0.00128999
H      0.72478488      3.55990985     -0.20548107
H      3.87358253     -0.84587388     -1.03532586
H     -3.65577335     -2.24128795      0.21247022
H     -0.75346596      3.96588521      0.70611316
H      0.75969348      3.57821000      1.58605193
H      4.25387297     -1.62346586      0.53471344
H      3.88107009      0.12687948      0.45399263
H     -1.73217844     -3.81116383      0.33838983
H     -3.24338396      0.19091170     -0.05603126
H      0.57909892     -2.93936751      0.15718755
