59
Lattice="0.0 0.0 0.0 0.0 0.0 0.0 0.0 0.0 0.0" Properties=species:S:1:pos:R:3:Z:I:1 pbc="F F F"
C       3.94471554      -0.33236964      -0.66111328        6 
C       5.34284626       0.35231545      -0.52624421        6 
C       2.82565408       0.32760565       0.11031594        6 
C       5.36574023       1.70722749       0.16152602        6 
O       1.64623452       0.14221329      -0.53489881        8 
O       2.91348641       0.88976037       1.17131975        8 
O       4.56833812       2.57436908      -0.50027498        8 
O       6.04426344       2.00558164       1.10928051        8 
C       4.40915532       3.86988964       0.10728239        6 
C       0.47011365       0.62951939       0.13756836        6 
C       4.26204397      -1.75323979      -0.04705691        6 
C       5.17975070      -2.50331698      -1.05362325        6 
C       6.55809254      -1.82954632      -0.79641286        6 
C       6.15845473      -0.73698880       0.21267314        6 
O       5.16802364      -1.40551489       1.00856892        8 
H       3.62993992      -0.42115511      -1.69932568        1 
H       5.74421094       0.52813755      -1.52811724        1 
C       3.08848401      -2.54840099       0.48073383        6 
H       5.20122769      -3.56694602      -0.81039047        1 
H       4.83153772      -2.40310788      -2.08361574        1 
H       7.25729264      -2.52676178      -0.33281718        1 
H       7.02472192      -1.42900400      -1.69879354        1 
H       6.94317681      -0.34540568       0.85291090        1 
C      -5.44824422      -0.17637199       0.64006179        6 
C      -4.20716016       0.73531274       0.35355557        6 
C      -5.28626359      -1.65362263       0.32649979        6 
C      -3.06779055       0.08048137      -0.39470848        6 
O      -4.26535062      -2.17367580       1.04183149        8 
O      -6.00195321      -2.30119882      -0.39201126        8 
O      -1.88539489       0.61741072      -0.00121246        8 
O      -3.16007606      -0.75495923      -1.25612535        8 
C      -0.70872400       0.12974569      -0.67419141        6 
C      -3.95512202      -3.55487775       0.77671142        6 
C      -6.54611722       0.51341410      -0.20704845        6 
C      -7.01635900       1.79043676       0.51930159        6 
C      -5.78475334       2.72322739       0.30457014        6 
C      -4.87654459       1.81876032      -0.55952899        6 
O      -5.80535446       1.04625299      -1.31806485        8 
H      -5.68134006      -0.12693711       1.70730200        1 
H      -3.80804134       1.17780689       1.26449086        1 
H      -3.65942792      -3.67311446      -0.26671304        1 
H      -7.31795606      -0.15880346      -0.56939269        1 
H      -7.90701574       2.19377906       0.03583213        1 
H      -7.24886215       1.61753692       1.57200462        1 
H      -6.05638031       3.62206361      -0.25033516        1 
H      -5.30525478       3.03092388       1.23578114        1 
H      -4.18959006       2.33564552      -1.22673685        1 
H      -4.81817500      -4.18869275       0.98468656        1 
H      -3.12992237      -3.80031841       1.44174784        1 
H       3.74940135       4.42327699      -0.55762691        1 
H       5.37278182       4.37246030       0.19931858        1 
H       3.95807362       3.76002924       1.09457005        1 
H      -0.68562388       0.51211218      -1.69756675        1 
H      -0.73095358      -0.96038228      -0.71476375        1 
H       0.49785897       1.72051204       0.18214968        1 
H       0.43695201       0.24476373       1.15879321        1 
H       3.44385722      -3.49193866       0.89973984        1 
H       2.38464184      -2.76684659      -0.32562700        1 
H       2.56320841      -2.00400193       1.26793038        1 
