32
Lattice="0.0 0.0 0.0 0.0 0.0 0.0 0.0 0.0 0.0" Properties=species:S:1:pos:R:3:Z:I:1 pbc="F F F"
C       0.78385536      -0.79753553       0.77562905        6 
C      -0.75115409      -0.41925858       0.72670350        6 
C       1.77643494       0.34181697       0.65320788        6 
C      -1.05115691       0.92642841       0.06902976        6 
O       2.30656840       0.44900735      -0.57922816        8 
O       2.09264136       1.04419647       1.58350200        8 
O      -2.37284625       1.01860198      -0.20959832        8 
O      -0.27219366       1.81526807      -0.16632114        8 
C      -2.80650082       2.23987855      -0.83371594        6 
C       3.14134076       1.59913371      -0.80000030        6 
C       0.88910883      -1.99661735      -0.22905690        6 
C       0.48339795      -1.51808085      -1.61380520        6 
C      -0.83451477      -1.29608334      -1.59542594        6 
C      -1.32622563      -1.58938050      -0.18490821        6 
C      -0.39096492      -2.76001155       0.18414110        6 
C      -1.37381306      -0.40633104       2.13478346        6 
H      -2.57762775       3.09719413      -0.19923836        1 
H       4.00428336       1.58348733      -0.13263498        1 
H      -1.44002758      -0.86274074      -2.38028991        1 
H      -3.88158930       2.13315797      -0.96205584        1 
H      -2.31592413       2.36739994      -1.80028496        1 
H       3.45777111       1.53394419      -1.83910196        1 
H       2.56342309       2.50825534      -0.62841459        1 
H      -2.39808401      -1.73197120      -0.06200245        1 
H       1.83594180      -2.53109040      -0.16329753        1 
H      -1.23733614      -1.37536162       2.61981663        1 
H      -0.89543598       0.35267202       2.75888671        1 
H      -2.44342075      -0.19577352       2.08254756        1 
H      -0.57602460      -3.64206879      -0.43164557        1 
H      -0.41471164      -3.04192589       1.23989605        1 
H       1.17423583      -1.30561435      -2.41643491        1 
H       0.97162341      -1.18982665       1.77748587        1 
