24
Lattice="0.0 0.0 0.0 0.0 0.0 0.0 0.0 0.0 0.0" Properties=species:S:1:pos:R:3:Z:I:1 pbc="F F F"
C       0.57189499      -0.70694426      -0.00000341        6 
C      -0.83000226      -0.66893969      -0.08414916        6 
C       1.35268096       0.55518357      -0.14089385        6 
C      -1.60907911       0.60452020      -0.26301490        6 
O       2.65816131       0.38540703       0.15446682        8 
O       0.88860108       1.61393332      -0.49687574        8 
O      -1.64370702       1.31602760       0.87546248        8 
O      -2.19336998       0.89883729      -1.27515267        8 
C      -2.29609947       2.59719025       0.78997850        6 
C       3.49247289       1.54773231       0.00166851        6 
C       1.21474961      -1.94074418       0.16238796        6 
C       0.47992171      -3.11945971       0.23346532        6 
C      -0.90960788      -3.07848828       0.13454010        6 
C      -1.55851430      -1.85753708      -0.02815694        6 
H      -1.76460430       3.23329337       0.08072811        1 
H       3.46337699       1.90411030      -1.02915729        1 
H      -1.48834405      -3.99402875       0.18146435        1 
H      -3.33239868       2.47895318       0.47056509        1 
H      -2.24705044       3.01396075       1.79339246        1 
H       4.49483648       1.21978747       0.26753464        1 
H       3.15916997       2.34541780       0.66705772        1 
H       0.99048380      -4.06744867       0.35720795        1 
H      -2.63831289      -1.82079784      -0.11267212        1 
H       2.29423436      -1.96596850       0.22252497        1 
