24
Lattice="0.0 0.0 0.0 0.0 0.0 0.0 0.0 0.0 0.0" Properties=species:S:1:pos:R:3:Z:I:1 pbc="F F F"
C      -0.66860388      -0.71089513      -0.19868288        6 
C      -0.74138299       0.61708803       0.23298938        6 
C       0.65798034      -1.37664262      -0.43226236        6 
C       0.51271339       1.42230501       0.41405740        6 
O       1.07343821      -2.01716523       0.67101581        8 
O       1.25169076      -1.37481825      -1.48304070        8 
O       0.70269780       2.24648945      -0.63013308        8 
O       1.24043843       1.36347070       1.37451296        8 
C       1.88794365       3.06719993      -0.58409969        6 
C       2.34123265      -2.69722215       0.57197769        6 
C      -1.84051302      -1.44212121      -0.39797560        6 
C      -3.08128126      -0.85184754      -0.17470100        6 
C      -3.15444962       0.47331722       0.25110262        6 
C      -1.98798496       1.20904248       0.44268896        6 
H       1.85283808       3.73844978       0.27528140        1 
H       2.29282311      -3.48311254      -0.18370884        1 
H      -4.11837116       0.93678662       0.42672815        1 
H       2.77812309       2.44045690      -0.51751652        1 
H       1.88299129       3.62965512      -1.51445837        1 
H       2.51712706      -3.11996630       1.55794326        1 
H       3.12907560      -1.99034634       0.30948225        1 
H      -3.98765687      -1.42550106      -0.33091809        1 
H      -2.04266095       2.24462747       0.75756466        1 
H      -1.77794850      -2.47284502      -0.72762551        1 
