24
Lattice="0.0 0.0 0.0 0.0 0.0 0.0 0.0 0.0 0.0" Properties=species:S:1:pos:R:3:Z:I:1 pbc="F F F"
C       1.04808740      -0.40777627      -0.10429169        6 
C       0.31895466       0.79449162       0.00842474        6 
C       0.45386929      -1.78451151      -0.03008250        6 
C      -1.14343629       0.88561812      -0.31278790        6 
O      -0.81414436      -1.78378080       0.40838312        8 
O       1.08927797      -2.79772873      -0.21697698        8 
O      -1.76350309       1.79617748       0.47035041        8 
O      -1.70018898       0.27075984      -1.18735342        8 
C      -3.15861366       2.01414183       0.19058410        6 
C      -1.45416712      -3.06674695       0.51469924        6 
C       2.44396512      -0.36267082      -0.06984905        6 
C       3.12139943       0.84427931       0.07215796        6 
C       2.40106397       2.02567250       0.21899693        6 
C       1.00901977       1.99731923       0.18202806        6 
H      -3.29388400       2.35713593      -0.83637960        1 
H      -1.46952306      -3.56310112      -0.45648987        1 
H       2.91692885       2.96991048       0.34984737        1 
H      -3.72349201       1.09217087       0.33672632        1 
H      -3.47984431       2.77640652       0.89695735        1 
H      -2.46671535      -2.85525159       0.85079334        1 
H      -0.93075035      -3.69697252       1.23541875        1 
H       4.20494557       0.85627332       0.08753437        1 
H       0.44297984       2.91635152       0.26161185        1 
H       2.98323351      -1.29950137      -0.13185653        1 
