24
Lattice="0.0 0.0 0.0 0.0 0.0 0.0 0.0 0.0 0.0" Properties=species:S:1:pos:R:3:Z:I:1 pbc="F F F"
C      -0.29814953      -0.76301843       0.01696376        6 
C      -1.01030061       0.45205770      -0.12189516        6 
C       1.17173717      -0.93975285      -0.24527441        6 
C      -0.44100604       1.83661097       0.04635341        6 
O       1.69551172      -1.87697534       0.58238709        8 
O       1.81262764      -0.37796046      -1.09451183        8 
O       0.88813437       1.90123016      -0.06027121        8 
O      -1.12722970       2.78898809       0.34859246        8 
C       1.48599524       3.18948122       0.16447090        6 
C       3.07633234      -2.20937739       0.35415323        6 
C      -1.02205146      -1.95555405       0.15861663        6 
C      -2.41263680      -1.97468133       0.12126678        6 
C      -3.11077852      -0.78536356      -0.05857370        6 
C      -2.40994120       0.41192582      -0.14529785        6 
H       1.06379470       3.92956096      -0.51625099        1 
H       3.21153442      -2.61100512      -0.65163797        1 
H      -4.19379604      -0.78302578      -0.10165228        1 
H       1.31966110       3.51174577       1.19383172        1 
H       2.54641659       3.04751863      -0.03051821        1 
H       3.32060497      -2.95958120       1.10310846        1 
H       3.70614568      -1.32674270       0.47395520        1 
H      -2.94206950      -2.91531313       0.22252723        1 
H      -2.94076541       1.35341024      -0.20066348        1 
H      -0.47455635      -2.88167871       0.27288498        1 
