24
Lattice="0.0 0.0 0.0 0.0 0.0 0.0 0.0 0.0 0.0" Properties=species:S:1:pos:R:3:Z:I:1 pbc="F F F"
C      -0.67607702      -0.62486114      -0.14362343        6 
C      -0.86532679       0.76534548      -0.07327310        6 
C       0.65738197      -1.29141244      -0.34963446        6 
C       0.24675945       1.74597892       0.13253301        6 
O       1.07570733      -1.87983444       0.79018618        8 
O       1.25377258      -1.34062071      -1.39305833        8 
O       1.37343367       1.39432598      -0.50543843        8 
O       0.15225967       2.72297429       0.83936283        8 
C       2.52050231       2.23617809      -0.29361356        6 
C       2.31902717      -2.60405762       0.70544813        6 
C      -1.79023518      -1.46999798      -0.13188786        6 
C      -3.07973349      -0.95141046      -0.07695511        6 
C      -3.27016483       0.42778084      -0.01378741        6 
C      -2.16778393       1.27283126       0.01506999        6 
H       2.32341464       3.24529381      -0.65817684        1 
H       2.23724593      -3.41850530      -0.01623732        1 
H      -4.27116632       0.84050838       0.03282125        1 
H       2.76973235       2.27965935       0.76779698        1 
H       3.32322102       1.77282638      -0.86245647        1 
H       2.49460778      -2.99335663       1.70560455        1 
H       3.12721444      -1.93657352       0.40341446        1 
H      -3.93086418      -1.62286788      -0.07937075        1 
H      -2.29622258       2.34276547       0.12143420        1 
H      -1.64132961      -2.54274754      -0.17528499        1 
