24
Lattice="0.0 0.0 0.0 0.0 0.0 0.0 0.0 0.0 0.0" Properties=species:S:1:pos:R:3:Z:I:1 pbc="F F F"
C       0.68448556       0.64148205      -0.17947559        6 
C      -0.66052326       0.73900089       0.19746860        6 
C       1.30909428      -0.71237549      -0.30087776        6 
C      -1.47513083      -0.50151220       0.43663916        6 
O       2.44754746      -0.80197950       0.40946213        8 
O       0.87447299      -1.60382645      -0.99180522        8 
O      -2.29251575      -0.75142751      -0.59656477        8 
O      -1.43718915      -1.15376631       1.45151510        8 
C      -3.09562160      -1.94519662      -0.49239363        6 
C       3.13341524      -2.06837366       0.33660048        6 
C       1.43566120       1.80123549      -0.37690602        6 
C       0.83507764       3.05081835      -0.25193796        6 
C      -0.50868480       3.14576829       0.10707645        6 
C      -1.25584963       1.99202207       0.33011264        6 
H      -2.45072739      -2.82247517      -0.42891069        1 
H       2.49579154      -2.86424921       0.72355438        1 
H      -0.97680465       4.11756562       0.21331430        1 
H      -3.73763998      -1.89891321       0.38829475        1 
H      -3.68954328      -1.97138590      -1.40292142        1 
H       4.01936772      -1.95115913       0.95620480        1 
H       3.40809143      -2.29439346      -0.69469236        1 
H       1.41650151       3.94863485      -0.42577612        1 
H      -2.30056343       2.06207303       0.60982578        1 
H       2.48400725       1.71770288      -0.63538893        1 
