24
Lattice="0.0 0.0 0.0 0.0 0.0 0.0 0.0 0.0 0.0" Properties=species:S:1:pos:R:3:Z:I:1 pbc="F F F"
C      -0.67208491      -0.65212100       0.12143435        6 
C      -0.89512376       0.73488089       0.08585406        6 
C       0.67338264      -1.28827755       0.34458441        6 
C       0.19447230       1.75062936      -0.04377845        6 
O       1.18832413      -1.74398516      -0.81388452        8 
O       1.19648290      -1.42254499       1.41994114        8 
O       1.38920470       1.28059586       0.35254293        8 
O       0.03249459       2.85800228      -0.50280407        8 
C       2.51261239       2.16433549       0.19717428        6 
C       2.46518114      -2.40494828      -0.71766650        6 
C      -1.76340458      -1.52378054       0.06925674        6 
C      -3.06423268      -1.03544598      -0.00155785        6 
C      -3.28905725       0.33993056      -0.02674059        6 
C      -2.20881098       1.21304555      -0.00367057        6 
H       2.65048932       2.42295872      -0.85385962        1 
H       3.21234771      -1.72425847      -0.30707248        1 
H      -4.29939417       0.72832224      -0.08027139        1 
H       2.36194771       3.07627147       0.77640055        1 
H       3.36769621       1.60843788       0.57490959        1 
H       2.72075909      -2.68915261      -1.73582803        1 
H       2.39176260      -3.28606268      -0.07831010        1 
H      -3.89787508      -1.72775014      -0.03622943        1 
H      -2.35930092       2.28322894      -0.06924665        1 
H      -1.58914950      -2.59337286       0.09331091        1 
