24
Lattice="0.0 0.0 0.0 0.0 0.0 0.0 0.0 0.0 0.0" Properties=species:S:1:pos:R:3:Z:I:1 pbc="F F F"
C      -0.82483102      -0.77339827       0.04475535        6 
C      -0.68585830       0.61886634       0.17109263        6 
C       0.31105316      -1.71935931      -0.20505578        6 
C       0.63134317       1.31945185       0.36119000        6 
O       1.39219504      -1.45342618       0.54018446        8 
O       0.25792532      -2.61352267      -1.01840919        8 
O       0.94020996       2.04572029      -0.73465305        8 
O       1.30835741       1.27984150       1.35460057        8 
C       2.16554477       2.80108165      -0.66357375        6 
C       2.54160932      -2.29059985       0.31810637        6 
C      -2.10835719      -1.32516344      -0.05264914        6 
C      -3.24149097      -0.52584003       0.02588870        6 
C      -3.10207990       0.85526886       0.14701203        6 
C      -1.83208502       1.42026961       0.20457176        6 
H       2.11901272       3.52860184       0.14830862        1 
H       2.31060926      -3.32649589       0.57125242        1 
H      -3.97781286       1.49264614       0.18919693        1 
H       3.01278161       2.13373453      -0.49907907        1 
H       2.25139940       3.30220572      -1.62492642        1 
H       3.31226178      -1.89688675       0.97644730        1 
H       2.85621528      -2.23829534      -0.72531234        1 
H      -4.22627558      -0.97536094      -0.02714942        1 
H      -1.72246957       2.49532848       0.28482672        1 
H      -2.19990331      -2.39360310      -0.20430798        1 
