24
Lattice="0.0 0.0 0.0 0.0 0.0 0.0 0.0 0.0 0.0" Properties=species:S:1:pos:R:3:Z:I:1 pbc="F F F"
C       0.71030996       0.59966105       0.14595473        6 
C      -0.69498282       0.59080029       0.14730355        6 
C       1.53547579      -0.64737044       0.28671643        6 
C      -1.51300935      -0.66283863       0.27863665        6 
O       2.42682070      -0.73406861      -0.73020449        8 
O       1.46196950      -1.45235169       1.17693934        8 
O      -2.41545213      -0.73397893      -0.73076593        8 
O      -1.43514622      -1.47916434       1.15802093        8 
C      -3.32006659      -1.85446583      -0.68264815        6 
C       3.31532207      -1.86769680      -0.68364516        6 
C       1.38597522       1.81430150      -0.01001263        6 
C       0.68685700       3.01199045      -0.11436923        6 
C      -0.70600924       3.00320017      -0.11187574        6 
C      -1.38783467       1.79625227      -0.00647494        6 
H      -2.76580228      -2.79364816      -0.71198683        1 
H       3.92153583      -1.84025531       0.22327444        1 
H      -1.26060674       3.92947297      -0.20747726        1 
H      -3.91909298      -1.82176161       0.22902451        1 
H      -3.95168109      -1.75283984      -1.56228403        1 
H       3.94097795      -1.78028302      -1.56892333        1 
H       2.74563263      -2.79795821      -0.70384659        1 
H       1.22837994       3.94566908      -0.21195561        1 
H      -2.46986296       1.77792740      -0.04179060        1 
H       2.46804248       1.81112193      -0.04663106        1 
