24
Lattice="0.0 0.0 0.0 0.0 0.0 0.0 0.0 0.0 0.0" Properties=species:S:1:pos:R:3:Z:I:1 pbc="F F F"
C       0.67211263      -0.73185631       0.20666282        6 
C      -0.66669671      -0.62312610      -0.18686493        6 
C       1.49265563       0.50383051       0.44267172        6 
C      -1.30072153       0.72693243      -0.31115209        6 
O       2.31015002       0.74366241      -0.59183549        8 
O       1.45108198       1.16575835       1.45118507        8 
O      -2.40414663       0.81926902       0.45261509        8 
O      -0.91726187       1.60052102      -1.05231948        8 
C      -3.13141196       2.06132681       0.36404575        6 
C       3.11626304       1.93651887      -0.49674771        6 
C       1.24992761      -1.99306551       0.35151439        6 
C       0.49311286      -3.14040174       0.12496695        6 
C      -0.84417418      -3.03336229      -0.25367266        6 
C      -1.42713916      -1.77718938      -0.39111754        6 
H      -2.49465930       2.89450372       0.66321992        1 
H       2.47426740       2.81240367      -0.39727001        1 
H      -1.43439064      -3.92531915      -0.42973246        1 
H      -3.48340646       2.22273251      -0.65606618        1 
H      -3.96921267       1.95222633       1.04866289        1 
H       3.67952961       1.97584498      -1.42586372        1 
H       3.78677785       1.87566714       0.36164251        1 
H       0.94861176      -4.11686474       0.24369940        1 
H      -2.47244653      -1.68515646      -0.66006173        1 
H       2.28989790      -2.07627470       0.64456072        1 
