24
Lattice="0.0 0.0 0.0 0.0 0.0 0.0 0.0 0.0 0.0" Properties=species:S:1:pos:R:3:Z:I:1 pbc="F F F"
C       0.56071998      -0.62132451      -0.13288967        6 
C      -0.81250442      -0.64631203       0.19433147        6 
C       1.37723674       0.61462169       0.10064078        6 
C      -1.71054928       0.55681899       0.27217275        6 
O       2.70331665       0.35270412       0.02609869        8 
O       0.94669186       1.72096321       0.31927172        8 
O      -1.52399783       1.37569017      -0.77215932        8 
O      -2.61521014       0.66971211       1.06645359        8 
C      -2.33905413       2.55952074      -0.80028877        6 
C       3.57524125       1.47694516       0.23427736        6 
C       1.20873753      -1.83193155      -0.41042264        6 
C       0.51870269      -3.04062367      -0.38974774        6 
C      -0.82466839      -3.06355666      -0.02696048        6 
C      -1.48172940      -1.87041741       0.26115730        6 
H      -3.39848997       2.29841955      -0.79975963        1 
H       3.37841552       2.25496011      -0.50469995        1 
H      -1.36445820      -4.00238318       0.02339813        1 
H      -2.11741893       3.18511247       0.06573779        1 
H      -2.06829518       3.07334706      -1.71972820        1 
H       4.58339304       1.08438352       0.12114727        1 
H       3.43342441       1.88880063       1.23467193        1 
H       1.03767041      -3.96201541      -0.62750181        1 
H      -2.53386038      -1.87046110       0.51822499        1 
H       2.26873535      -1.81947046      -0.62132474        1 
