24
Lattice="0.0 0.0 0.0 0.0 0.0 0.0 0.0 0.0 0.0" Properties=species:S:1:pos:R:3:Z:I:1 pbc="F F F"
C      -0.56947939      -0.69972006       0.10778167        6 
C      -0.97141764       0.63490319      -0.04816710        6 
C       0.85959306      -1.06103279       0.37965806        6 
C      -0.00281801       1.77031461       0.02779110        6 
O       1.32467962      -1.92562112      -0.54107268        8 
O       1.49015339      -0.69124038       1.33978209        8 
O       1.11938707       1.50623808      -0.66968928        8 
O      -0.19645945       2.79290159       0.63821777        8 
C       2.18709368       2.46238699      -0.53632138        6 
C       2.67124116      -2.39613784      -0.33854759        6 
C      -1.52311102      -1.71856229       0.04793151        6 
C      -2.86974654      -1.41440773      -0.13206008        6 
C      -3.27250845      -0.08636158      -0.26306275        6 
C      -2.32655245       0.93275845      -0.21238629        6 
H       1.84930154       3.45635248      -0.83144392        1 
H       3.36843661      -1.55725694      -0.33640457        1 
H      -4.32001589       0.15446276      -0.40240664        1 
H       2.53520360       2.48621038       0.49757450        1 
H       2.97475163       2.11013682      -1.19837477        1 
H       2.87283202      -3.06172142      -1.17460491        1 
H       2.74942772      -2.93112706       0.60927729        1 
H      -3.60210669      -2.21292675      -0.16844083        1 
H      -2.62645738       1.96967212      -0.30294411        1 
H      -1.20704659      -2.74935292       0.15325817        1 
