24
Lattice="0.0 0.0 0.0 0.0 0.0 0.0 0.0 0.0 0.0" Properties=species:S:1:pos:R:3:Z:I:1 pbc="F F F"
C       0.90848304      -0.67434359      -0.07876153        6 
C       0.68727194       0.68430376       0.17553596        6 
C      -0.19535993      -1.67050493       0.11634682        6 
C      -0.70762686       1.18075167       0.42304114        6 
O      -1.20195368      -1.47083996      -0.75876866        8 
O      -0.21863901      -2.49458641       0.99481463        8 
O      -1.16269536       1.88538791      -0.62833833        8 
O      -1.32975088       1.01064481       1.44294331        8 
C      -2.50398397       2.39928978      -0.50882656        6 
C      -2.38298826      -2.27334024      -0.55478490        6 
C       2.20291126      -1.13128775      -0.32936872        6 
C       3.26525698      -0.23417553      -0.37325048        6 
C       3.04199960       1.12099844      -0.13337519        6 
C       1.75472655       1.58061262       0.13182506        6 
H      -3.21151365       1.57771025      -0.38709591        1 
H      -2.14293211      -3.33396104      -0.63878007        1 
H       3.86891869       1.82111156      -0.15529761        1 
H      -2.58227498       3.07202192       0.34638609        1 
H      -2.69180161       2.93241357      -1.43787019        1 
H      -3.07392499      -1.97334679      -1.33943135        1 
H      -2.80442662      -2.07363996       0.43143061        1 
H       4.26607577      -0.59328248      -0.58250175        1 
H       1.57537369       2.63434511       0.30949730        1 
H       2.36988384      -2.19069663      -0.48480586        1 
