24
Lattice="0.0 0.0 0.0 0.0 0.0 0.0 0.0 0.0 0.0" Properties=species:S:1:pos:R:3:Z:I:1 pbc="F F F"
C       0.58902664      -0.96961544      -0.05598162        6 
C      -0.72684443      -0.47488200      -0.14884377        6 
C       1.82108985      -0.14532590       0.18788990        6 
C      -1.10621504       0.96927802      -0.32987975        6 
O       1.82354693       1.02482654      -0.45665579        8 
O       2.71742612      -0.51550121       0.91339784        8 
O      -2.01047011       1.33273110       0.61010950        8 
O      -0.72581833       1.70251613      -1.20418220        8 
C      -2.53452436       2.66888359       0.49252950        6 
C       2.95988364       1.87739700      -0.22876788        6 
C       0.78904469      -2.35528859       0.00232813        6 
C      -0.27439882      -3.24579823      -0.07647339        6 
C      -1.57547459      -2.75624455      -0.15605170        6 
C      -1.79402436      -1.38328200      -0.17455355        6 
H      -1.73030576       3.40208652       0.56968752        1 
H       3.06241046       2.10094912       0.83422032        1 
H      -2.41832639      -3.43696714      -0.19479217        1 
H      -3.04362894       2.79592852      -0.46441261        1 
H      -3.23402438       2.77815947       1.31816552        1 
H       2.75518146       2.78085070      -0.79809656        1 
H       3.87231188       1.39528774      -0.58325002        1 
H      -0.08983110      -4.31353163      -0.05312237        1 
H      -2.80581370      -0.99995942      -0.22064330        1 
H       1.80057714      -2.72065082       0.12568564        1 
