24
Lattice="0.0 0.0 0.0 0.0 0.0 0.0 0.0 0.0 0.0" Properties=species:S:1:pos:R:3:Z:I:1 pbc="F F F"
C       0.73828975       0.47229328      -0.15281694        6 
C      -0.66627320       0.51170318       0.03794338        6 
C       1.54376083      -0.79944756      -0.06606218        6 
C      -1.59802763      -0.65137167      -0.17915925        6 
O       2.83589391      -0.51902010       0.25849884        8 
O       1.16245972      -1.92523692      -0.24648491        8 
O      -2.72874859      -0.50062830       0.56102374        8 
O      -1.41470491      -1.59103254      -0.90418923        8 
C      -3.72328514      -1.52483258       0.38765866        6 
C       3.70789492      -1.65776962       0.35316256        6 
C       1.44167695       1.68270150      -0.20723110        6 
C       0.79728029       2.91020515      -0.09724588        6 
C      -0.57278924       2.94736176       0.13298346        6 
C      -1.28944483       1.75744310       0.19477975        6 
H      -4.06730168      -1.55347446      -0.64788788        1 
H       3.35628456      -2.34623664       1.12340052        1 
H      -1.08863875       3.89360213       0.24912527        1 
H      -3.31624448      -2.50115438       0.65488369        1 
H      -4.53832559      -1.25228221       1.05480482        1 
H       4.68281267      -1.25338117       0.61719265        1 
H       3.75442875      -2.18562932      -0.60074136        1 
H       1.36983647       3.82756974      -0.16897731        1 
H      -2.36048164       1.78161472       0.34042426        1 
H       2.51532615       1.64932230      -0.32158955        1 
