24
Lattice="0.0 0.0 0.0 0.0 0.0 0.0 0.0 0.0 0.0" Properties=species:S:1:pos:R:3:Z:I:1 pbc="F F F"
C       0.73455062       0.48545608      -0.14489477        6 
C      -0.67308728       0.52032447       0.00455168        6 
C       1.54474946      -0.78474534      -0.10396819        6 
C      -1.59492382      -0.65655478      -0.17453912        6 
O       2.79032124      -0.52757276       0.38149377        8 
O       1.20272185      -1.88859819      -0.43441623        8 
O      -2.69653074      -0.51634233       0.61074511        8 
O      -1.43101773      -1.59473411      -0.90594887        8 
C      -3.68853401      -1.54923502       0.47644184        6 
C       3.67002772      -1.66254480       0.45324794        6 
C       1.43757723       1.69752789      -0.17000826        6 
C       0.78642815       2.92235078      -0.07755352        6 
C      -0.59174963       2.95525914       0.10284575        6 
C      -1.30564522       1.76349381       0.14556979        6 
H      -4.06572563      -1.58703662      -0.54713663        1 
H       3.25164862      -2.42916454       1.10739075        1 
H      -1.11395699       3.90005405       0.20066009        1 
H      -3.26552279      -2.52078524       0.73617905        1 
H      -4.48306482      -1.27853726       1.16857702        1 
H       4.60313646      -1.27897257       0.86037798        1 
H       3.82805743      -2.08924972      -0.53862396        1 
H       1.35835034       3.84162274      -0.12545161        1 
H      -2.37952768       1.78333160       0.27022228        1 
H       2.51441633       1.66721382      -0.25337497        1 
