24
Lattice="0.0 0.0 0.0 0.0 0.0 0.0 0.0 0.0 0.0" Properties=species:S:1:pos:R:3:Z:I:1 pbc="F F F"
C       0.60171609       0.55775553      -0.17208994        6 
C      -0.75937296       0.69638390       0.18362424        6 
C       1.34362860      -0.74366217      -0.01996610        6 
C      -1.78387861      -0.40239769       0.28764152        6 
O       2.66108181      -0.51244086       0.21095762        8 
O       0.89241876      -1.85904720      -0.08950246        8 
O      -1.66023139      -1.30688083      -0.68793195        8 
O      -2.72061745      -0.36465183       1.05426078        8 
C      -2.61518426      -2.38136470      -0.68828683        6 
C       3.48113479      -1.68524084       0.35567116        6 
C       1.34522863       1.71340243      -0.44625669        6 
C       0.76672227       2.97711203      -0.39564905        6 
C      -0.55996823       3.11249077       0.00083507        6 
C      -1.31019104       1.97761649       0.28838252        6 
H      -2.54884741      -2.94484674       0.24347806        1 
H       3.14299885      -2.28521048       1.20196561        1 
H      -1.01527662       4.09315231       0.07751245        1 
H      -3.62880296      -1.99475291      -0.80695572        1 
H      -2.33874789      -3.00888164      -1.53227367        1 
H       4.48845683      -1.31271947       0.52838517        1 
H       3.44351333      -2.29273933      -0.54993522        1 
H       1.36028784       3.85130631      -0.63648791        1 
H      -2.35045072       2.06383349       0.57591394        1 
H       2.39480544       1.61086998      -0.68267091        1 
