24
Lattice="0.0 0.0 0.0 0.0 0.0 0.0 0.0 0.0 0.0" Properties=species:S:1:pos:R:3:Z:I:1 pbc="F F F"
C       0.71447968      -0.67372484       0.18966405        6 
C       0.80049461       0.68542012      -0.17728116        6 
C      -0.54872947      -1.48439987       0.24929825        6 
C      -0.31843300       1.67749445      -0.03887150        6 
O      -1.27498371      -1.34412807      -0.87329010        8 
O      -0.79770108      -2.29169950       1.11329125        8 
O      -1.51616451       1.11397327       0.19501415        8 
O      -0.14343238       2.87504034      -0.01658421        8 
C      -2.60552197       2.01764642       0.45253740        6 
C      -2.49733226      -2.09837317      -0.93212030        6 
C       1.88485354      -1.42097614       0.34361875        6 
C       3.13162164      -0.85616419       0.09354934        6 
C       3.21831043       0.47359983      -0.31092636        6 
C       2.06318748       1.24064855      -0.41237385        6 
H      -2.39592318       2.62750506       1.33244522        1 
H      -2.29930559      -3.16509878      -0.81728605        1 
H       4.18334782       0.92147946      -0.51689433        1 
H      -2.77044144       2.66940635      -0.40645160        1 
H      -3.47131093       1.38164473       0.62363266        1 
H      -2.91942056      -1.88834034      -1.91228600        1 
H      -3.17946631      -1.77357654      -0.14388426        1 
H       4.02757885      -1.45538128       0.20797218        1 
H       2.11979151       2.29673911      -0.64317357        1 
H       1.79910853      -2.45974297       0.63821971        1 
