24
Lattice="0.0 0.0 0.0 0.0 0.0 0.0 0.0 0.0 0.0" Properties=species:S:1:pos:R:3:Z:I:1 pbc="F F F"
C       0.77380293      -0.62445964      -0.17784093        6 
C       0.84171921       0.75916505       0.03210930        6 
C      -0.53538207      -1.33257466      -0.39719286        6 
C      -0.38787082       1.56862514       0.31775012        6 
O      -1.01371498      -1.83090865       0.76039592        8 
O      -1.09254102      -1.43967754      -1.45895763        8 
O      -1.26192246       1.52916273      -0.70170409        8 
O      -0.59074644       2.13916249       1.36230883        8 
C      -2.52618541       2.18621058      -0.48802226        6 
C      -2.27558450      -2.52518279       0.67771314        6 
C       1.95036051      -1.36919862      -0.27306609        6 
C       3.18935665      -0.74532719      -0.16510508        6 
C       3.25828670       0.62985797       0.05163278        6 
C       2.08858298       1.37265163       0.17146127        6 
H      -3.03874008       1.75050762       0.37114223        1 
H      -3.05048230      -1.85890861       0.29573328        1 
H       4.22027143       1.12035127       0.14241207        1 
H      -2.37669568       3.25265952      -0.31416934        1 
H      -3.09302200       2.01953679      -1.40086846        1 
H      -2.50103352      -2.83412458       1.69559982        1 
H      -2.19164128      -3.39194291       0.02042156        1 
H       4.09668985      -1.33252202      -0.24598214        1 
H       2.13204478       2.43484863       0.38051927        1 
H       1.89039694      -2.43912854      -0.43666770        1 
