24
Lattice="0.0 0.0 0.0 0.0 0.0 0.0 0.0 0.0 0.0" Properties=species:S:1:pos:R:3:Z:I:1 pbc="F F F"
C       0.87476296      -0.72337718      -0.02543099        6 
C       0.79028719       0.67413304      -0.10608158        6 
C      -0.33304284      -1.58709676       0.16001399        6 
C      -0.52347458       1.37665083      -0.30961140        6 
O      -1.33072114      -1.24838939      -0.67756266        8 
O      -0.42340157      -2.45228699       0.99788515        8 
O      -1.17817132       1.53509938       0.85748461        8 
O      -0.95156435       1.72551086      -1.37923332        8 
C      -2.48741182       2.13233314       0.76952280        6 
C      -2.57614464      -1.95038491      -0.50570989        6 
C       2.12788550      -1.33504061       0.07024197        6 
C       3.28991449      -0.57398434       0.03346743        6 
C       3.20510952       0.81452515      -0.05966188        6 
C       1.96061280       1.43391395      -0.13070512        6 
H      -2.42204566       3.13575006       0.34701890        1 
H      -2.43854430      -3.01834577      -0.68008748        1 
H       4.10658886       1.41575429      -0.07859152        1 
H      -3.13918487       1.52059712       0.14350148        1 
H      -2.85731785       2.16847203       1.79160503        1 
H      -3.24921182      -1.52466730      -1.24643412        1 
H      -2.96131756      -1.79761107       0.50376819        1 
H       4.25669606      -1.06031215       0.08870411        1 
H       1.89212795       2.51247876      -0.21115865        1 
H       2.17497264      -2.41181051       0.17959391        1 
