24
Lattice="0.0 0.0 0.0 0.0 0.0 0.0 0.0 0.0 0.0" Properties=species:S:1:pos:R:3:Z:I:1 pbc="F F F"
C       0.86394844       0.67492406       0.02117465        6 
C      -0.53599601       0.73551391       0.10828038        6 
C       1.60865455      -0.61512113       0.23625267        6 
C      -1.32710745      -0.52734377       0.19955918        6 
O       1.66363514      -1.34456089      -0.89184697        8 
O       2.08486704      -0.94558490       1.29104086        8 
O      -2.56572328      -0.38084773      -0.31721016        8 
O      -0.93738960      -1.55583759       0.70143015        8 
C      -3.42774813      -1.53046495      -0.22265328        6 
C       2.21504916      -2.66999851      -0.75276061        6 
C       1.59703230       1.85094576      -0.13073415        6 
C       0.94800787       3.08066227      -0.20822945        6 
C      -0.44181707       3.14376531      -0.12210193        6 
C      -1.17998608       1.97434768       0.01910721        6 
H      -2.99668881      -2.37515511      -0.76190688        1 
H       3.24726834      -2.62123410      -0.40373323        1 
H      -0.94927696       4.09987461      -0.17370302        1 
H      -3.57824948      -1.80929935       0.82136487        1 
H      -4.36657056      -1.22391709      -0.67849664        1 
H       2.16501520      -3.10883785      -1.74672907        1 
H       1.61501249      -3.24335564      -0.04478165        1 
H       1.52830027       3.98820647      -0.32879916        1 
H      -2.26043389       2.00923225       0.06406919        1 
H       2.67828417       1.79991574      -0.18123119        1 
