24
Lattice="0.0 0.0 0.0 0.0 0.0 0.0 0.0 0.0 0.0" Properties=species:S:1:pos:R:3:Z:I:1 pbc="F F F"
C      -0.58365968      -0.70226931       0.09589191        6 
C      -0.95871767       0.64619311      -0.01900901        6 
C       0.82445681      -1.13789379       0.38666345        6 
C       0.01592390       1.77704859      -0.01900928        6 
O       1.34743969      -1.81111017      -0.65408218        8 
O       1.38181784      -0.98253902       1.44423328        8 
O       1.25452441       1.37595550      -0.36222521        8 
O      -0.27174388       2.92533525       0.22537488        8 
C       2.28631411       2.37645393      -0.31338282        6 
C       2.67979765      -2.32383393      -0.46495101        6 
C      -1.56292031      -1.69593124       0.03200226        6 
C      -2.90562665      -1.36043231      -0.12065804        6 
C      -3.28210378      -0.02178088      -0.21344576        6 
C      -2.31178301       0.97245692      -0.16234381        6 
H       2.06873380       3.18139032      -1.01661031        1 
H       3.37719283      -1.50431094      -0.28519963        1 
H      -4.32593773       0.24557175      -0.32937872        1 
H       2.36725098       2.78572572       0.69443592        1 
H       3.20209486       1.85979801      -0.59139570        1 
H       2.92475893      -2.83994327      -1.39040383        1 
H       2.70861931      -3.01242070       0.38088535        1 
H      -3.65445015      -2.14332024      -0.16380014        1 
H      -2.58245830       2.01806786      -0.23978973        1 
H      -1.27051804      -2.73615048       0.11426846        1 
