24
Lattice="0.0 0.0 0.0 0.0 0.0 0.0 0.0 0.0 0.0" Properties=species:S:1:pos:R:3:Z:I:1 pbc="F F F"
C       0.66076832       0.58105005       0.16257753        6 
C      -0.68958093       0.77144133      -0.17361609        6 
C       1.25715045      -0.78878119       0.09476075        6 
C      -1.64784486      -0.36724031      -0.39801471        6 
O       2.55560348      -0.74584046      -0.27329006        8 
O       0.68172767      -1.81866065       0.35722717        8 
O      -2.01609920      -0.92287191       0.76330685        8 
O      -2.10565962      -0.66292889      -1.47536719        8 
C      -2.86662054      -2.08128496       0.66892075        6 
C       3.22595751      -2.01870535      -0.34549021        6 
C       1.46988108       1.69657455       0.40519174        6 
C       0.93607522       2.98005914       0.36009863        6 
C      -0.40131221       3.16478638       0.01432688        6 
C      -1.20753988       2.06336769      -0.25829454        6 
H      -3.79208109      -1.83903764       0.14433747        1 
H       3.21819343      -2.51004674       0.62861911        1 
H      -0.81768613       4.16386227      -0.04434511        1 
H      -2.34278873      -2.87930906       0.14082510        1 
H      -3.06983735      -2.37324930       1.69647778        1 
H       4.24337152      -1.79095723      -0.65484545        1 
H       2.73620287      -2.66356782      -1.07645824        1 
H       1.56754039       3.83463835       0.57285435        1 
H      -2.24742894       2.19947827      -0.53115627        1 
H       2.51864339       1.54726645       0.62508952        1 
