24
Lattice="0.0 0.0 0.0 0.0 0.0 0.0 0.0 0.0 0.0" Properties=species:S:1:pos:R:3:Z:I:1 pbc="F F F"
C       0.73849815      -0.66347137      -0.13415137        6 
C       0.85886234       0.71607069       0.07063649        6 
C      -0.59891848      -1.29477520      -0.40141516        6 
C      -0.30471795       1.62619639      -0.19443943        6 
O      -1.17193420      -1.71420482       0.73995791        8 
O      -1.08013040      -1.45105984      -1.49672565        8 
O      -1.28183174       1.47156268       0.71997132        8 
O      -0.38849176       2.35063294      -1.15413436        8 
C      -2.50009896       2.20334892       0.47188862        6 
C      -2.46984947      -2.32767250       0.60819854        6 
C       1.86661383      -1.48015098      -0.05905899        6 
C       3.11387474      -0.92672365       0.21464907        6 
C       3.23673381       0.44722849       0.41470946        6 
C       2.11606969       1.26725824       0.32248412        6 
H      -2.30479876       3.27624570       0.45740126        1 
H      -3.17708859      -1.62224155       0.16919501        1 
H       4.20643109       0.88194242       0.62671835        1 
H      -2.93065964       1.90163699      -0.48408577        1 
H      -3.16295517       1.94478130       1.29444780        1 
H      -2.76777105      -2.59002315       1.62062736        1 
H      -2.41114080      -3.21734514      -0.02043199        1 
H       3.98647029      -1.56703758       0.26982056        1 
H       2.21166368       2.34036426       0.43871103        1 
H       1.76373001      -2.54761138      -0.21707250        1 
