24
Lattice="0.0 0.0 0.0 0.0 0.0 0.0 0.0 0.0 0.0" Properties=species:S:1:pos:R:3:Z:I:1 pbc="F F F"
C       0.84512513       0.67485017      -0.15518717        6 
C      -0.53838242       0.65833008       0.11468299        6 
C       1.69581558      -0.55926226      -0.25646621        6 
C      -1.33702381      -0.58912150      -0.11085331        6 
O       1.55048204      -1.33712253       0.82691820        8 
O       2.51106771      -0.74815991      -1.12743906        8 
O      -2.66488472      -0.36169644       0.01088704        8 
O      -0.88594290      -1.68204983      -0.35935266        8 
C      -3.51879226      -1.50341352      -0.18016156        6 
C       2.23514688      -2.60182822       0.79470622        6 
C       1.52584620       1.89092855      -0.20050886        6 
C       0.85921039       3.08760269       0.05026823        6 
C      -0.50074249       3.07476052       0.34929633        6 
C      -1.19687775       1.87022747       0.35502655        6 
H      -3.39917692      -1.90534940      -1.18740950        1 
H       1.82370758      -3.22072691      -0.00449692        1 
H      -1.02578278       4.00133396       0.55028966        1 
H      -3.28353121      -2.28181319       0.54719417        1 
H      -4.53105953      -1.13330379      -0.03296085        1 
H       2.04531415      -3.05768406       1.76375968        1 
H       3.30491582      -2.45974067       0.63616594        1 
H       1.40333184       4.02437731       0.01644896        1 
H      -2.26436350       1.85996363       0.52591257        1 
H       2.58663001       1.88552629      -0.41937394        1 
