24
Lattice="0.0 0.0 0.0 0.0 0.0 0.0 0.0 0.0 0.0" Properties=species:S:1:pos:R:3:Z:I:1 pbc="F F F"
C       0.52997403      -0.73788959      -0.01900502        6 
C      -0.86980973      -0.63251128      -0.07207190        6 
C       1.36884399       0.48554592      -0.16726031        6 
C      -1.58554067       0.67801387      -0.24742962        6 
O       2.65065555       0.27317994       0.19613887        8 
O       0.96777086       1.54652642      -0.58707459        8 
O      -1.54321873       1.40724162       0.87989706        8 
O      -2.17672599       0.99401900      -1.24864045        8 
C      -2.11857844       2.72481001       0.79305669        6 
C       3.54156400       1.39198789       0.03513381        6 
C       1.11711358      -2.00014043       0.13388602        6 
C       0.32860238      -3.14270145       0.21957241        6 
C      -1.05919329      -3.03540859       0.15101922        6 
C      -1.65290049      -1.78494612       0.00073880        6 
H      -1.56660648       3.31850799       0.06293020        1 
H       3.58086327       1.69945073      -1.01099532        1 
H      -1.67953012      -3.92247533       0.21145959        1 
H      -3.16770377       2.66636576       0.49992293        1 
H      -2.01972978       3.14962145       1.78935971        1 
H       4.51373652       1.03644029       0.36881447        1 
H       3.20891446       2.23348957       0.64434261        1 
H       0.79565612      -4.11412439       0.33282456        1 
H      -2.73127476      -1.69686245      -0.06081998        1 
H       2.19528107      -2.07579815       0.17458437        1 
