24
Lattice="0.0 0.0 0.0 0.0 0.0 0.0 0.0 0.0 0.0" Properties=species:S:1:pos:R:3:Z:I:1 pbc="F F F"
C       1.00334320      -0.52648889       0.01265136        6 
C       0.49731491       0.77410834      -0.12363344        6 
C       0.11585225      -1.72722112      -0.15082164        6 
C      -0.97036756       0.98151199      -0.31483737        6 
O      -0.77010152      -1.82059054       0.85829654        8 
O       0.17677955      -2.49264429      -1.07850171        8 
O      -1.42908330       2.00934019       0.42654685        8 
O      -1.66136323       0.34427600      -1.07435588        8 
C      -2.82820810       2.31834918       0.27178251        6 
C      -1.78064318      -2.83930490       0.71434571        6 
C       2.37272679      -0.72201763       0.18657297        6 
C       3.23391484       0.36954962       0.25558774        6 
C       2.73025218       1.66391784       0.13514952        6 
C       1.36486327       1.86566341      -0.04116156        6 
H      -3.04407399       2.60208556      -0.75938619        1 
H      -2.37342367      -2.64533393      -0.18087405        1 
H       3.39916495       2.51516905       0.18222147        1 
H      -3.43907898       1.45618858       0.54265565        1 
H      -3.01577518       3.14935708       0.94780910        1 
H      -2.39511858      -2.76414848       1.60861647        1 
H      -1.32219851      -3.82645933       0.64330979        1 
H       4.29626899       0.20894630       0.39813574        1 
H       0.96294120       2.86760457      -0.12229652        1 
H       2.75803586      -1.73184353       0.26445947        1 
