24
Lattice="0.0 0.0 0.0 0.0 0.0 0.0 0.0 0.0 0.0" Properties=species:S:1:pos:R:3:Z:I:1 pbc="F F F"
C       0.25219985      -0.80756303       0.07236856        6 
C      -1.04399037      -0.29154065      -0.14490096        6 
C       1.46746516       0.01512838      -0.22614244        6 
C      -1.39735528       1.16736710      -0.15428345        6 
O       2.59652308      -0.57332235       0.22973652        8 
O       1.46802151       1.06891565      -0.81467310        8 
O      -0.65181113       1.86755974       0.71428510        8 
O      -2.34767703       1.62461298      -0.74590248        8 
C      -0.90459879       3.28134033       0.76737242        6 
C       3.82312041       0.12033676      -0.05760409        6 
C       0.40343783      -2.17977553       0.30253005        6 
C      -0.69782989      -3.03286428       0.31822292        6 
C      -1.96859377      -2.52683610       0.06408135        6 
C      -2.13556560      -1.16190885      -0.15786757        6 
H      -0.67457711       3.73725983      -0.19689152        1 
H       3.95347951       0.23512646      -1.13481633        1 
H      -2.82937077      -3.18561355       0.05087611        1 
H      -1.94702121       3.47622847       1.02346198        1 
H      -0.23943202       3.66408466       1.53802376        1 
H       4.61136143      -0.50136858       0.36113534        1 
H       3.82174474       1.10608163       0.41003625        1 
H      -0.55658368      -4.09137934       0.50447494        1 
H      -3.12177641      -0.74561478      -0.32144020        1 
H       1.39900174      -2.57870033       0.44016359        1 
