24
Lattice="0.0 0.0 0.0 0.0 0.0 0.0 0.0 0.0 0.0" Properties=species:S:1:pos:R:3:Z:I:1 pbc="F F F"
C       0.65772964       0.60717398       0.12341718        6 
C      -0.70840657       0.76306953      -0.16299736        6 
C       1.27200838      -0.75184982       0.04891007        6 
C      -1.63260342      -0.40390854      -0.38701245        6 
O       2.60327454      -0.69489671      -0.16470977        8 
O       0.67169116      -1.79327790       0.18237107        8 
O      -2.02122118      -0.93978462       0.77845037        8 
O      -2.04638541      -0.73972653      -1.46940317        8 
C      -2.82841520      -2.12913968       0.68608269        6 
C       3.27851425      -1.96465668      -0.23842381        6 
C       1.44509887       1.74211655       0.34857127        6 
C       0.87720451       3.01132536       0.32512280        6 
C      -0.47688934       3.16141023       0.03088807        6 
C      -1.26404861       2.04030499      -0.21708838        6 
H      -3.74575012      -1.93154057       0.12946147        1 
H       3.17184864      -2.50873157       0.70138615        1 
H      -0.92142739       4.14935977      -0.00647143        1 
H      -2.26093890      -2.91867010       0.19132829        1 
H      -3.05277042      -2.40546576       1.71369931        1 
H       4.32215560      -1.72517289      -0.42870023        1 
H       2.86671416      -2.56611564      -1.04989719        1 
H       1.49293503       3.88187663       0.51825928        1 
H      -2.31663529       2.15124696      -0.44992326        1 
H       2.50264125       1.61744395       0.53861514        1 
