24
Lattice="0.0 0.0 0.0 0.0 0.0 0.0 0.0 0.0 0.0" Properties=species:S:1:pos:R:3:Z:I:1 pbc="F F F"
C       0.90344856       0.65281966      -0.06642911        6 
C      -0.49769339       0.74772679      -0.01742413        6 
C       1.61060304      -0.66334620      -0.23586378        6 
C      -1.33219807      -0.48088805      -0.16459050        6 
O       1.53136238      -1.40229377       0.88339056        8 
O       2.20375942      -0.98756948      -1.23330276        8 
O      -2.61347974      -0.27388062       0.20584397        8 
O      -0.93141587      -1.54255665      -0.58317205        8 
C      -3.50193140      -1.39687963       0.05665670        6 
C       2.01263832      -2.75623836       0.77618875        6 
C       1.67678691       1.81027585       0.00084750        6 
C       1.07005553       3.05595068       0.14233284        6 
C      -0.31868516       3.15268884       0.20764066        6 
C      -1.09757712       2.00376408       0.12702700        6 
H      -3.55380606      -1.70581873      -0.98846199        1 
H       1.44472848      -3.28455429       0.00912503        1 
H      -0.79433540       4.12057285       0.31410642        1 
H      -3.15937902      -2.23637606       0.66313704        1 
H      -4.47126676      -1.04436216       0.40198122        1 
H       1.84365707      -3.20036489       1.75456764        1 
H       3.07404589      -2.76992174       0.52468636        1 
H       1.68197688       3.94879403       0.19862839        1 
H      -2.17661991       2.06860408       0.16545283        1 
H       2.75567414       1.72938269      -0.05725142        1 
