24
Lattice="0.0 0.0 0.0 0.0 0.0 0.0 0.0 0.0 0.0" Properties=species:S:1:pos:R:3:Z:I:1 pbc="F F F"
C       0.81250709      -0.68950763       0.03250874        6 
C       0.70998600       0.69687389       0.19192797        6 
C      -0.37310343      -1.58092603       0.27789375        6 
C      -0.63121537       1.32914230       0.42522664        6 
O      -1.11797281      -1.72316287      -0.83723040        8 
O      -0.64668525      -2.07533548       1.34042081        8 
O      -1.05076587       1.97983244      -0.67800702        8 
O      -1.24861390       1.29104689       1.45999350        8 
C      -2.33523515       2.62704154      -0.57805584        6 
C      -2.31492179      -2.51758410      -0.69926460        6 
C       2.05285171      -1.26642136      -0.23989811        6 
C       3.18529347      -0.46677904      -0.36333769        6 
C       3.08263051       0.91451386      -0.20871592        6 
C       1.84496906       1.49583279       0.05258513        6 
H      -3.11351823       1.89119407      -0.37019336        1 
H      -2.06261212      -3.54097552      -0.41784533        1 
H       3.96294402       1.53980166      -0.29991347        1 
H      -2.32668715       3.37526103       0.21589745        1 
H      -2.49781430       3.09400900      -1.54661170        1 
H      -2.78917181      -2.49467325      -1.67768176        1 
H      -2.96919126      -2.08666021       0.05987822        1 
H       4.14538578      -0.92253349      -0.57553494        1 
H       1.75522088       2.57121294       0.15091342        1 
H       2.12846337      -2.34221853      -0.34957157        1 
