24
Lattice="0.0 0.0 0.0 0.0 0.0 0.0 0.0 0.0 0.0" Properties=species:S:1:pos:R:3:Z:I:1 pbc="F F F"
C       0.73912077       0.73760869      -0.03491064        6 
C      -0.65377871       0.64725105      -0.18116262        6 
C       1.63490004      -0.44910191      -0.27005124        6 
C      -1.31508787      -0.69240649      -0.26638067        6 
O       1.97984477      -1.04110543       0.89023020        8 
O       1.98183330      -0.82913071      -1.35641019        8 
O      -2.44053665      -0.72549190       0.48236075        8 
O      -0.93882735      -1.62219207      -0.93760704        8 
C      -3.19122115      -1.95356112       0.43249180        6 
C       2.77459670      -2.23955818       0.76648444        6 
C       1.32955716       1.98321370       0.17957084        6 
C       0.54767305       3.13375842       0.24029693        6 
C      -0.83495599       3.04671452       0.08859606        6 
C      -1.43328705       1.80484788      -0.09295165        6 
H      -3.51556992      -2.16190260      -0.58822996        1 
H       2.22898356      -2.99065280       0.19358438        1 
H      -1.44675254       3.94022957       0.12939371        1 
H      -2.58466368      -2.78558074       0.79292813        1 
H      -4.04756237      -1.79392870       1.08396660        1 
H       2.94569789      -2.57851275       1.78555605        1 
H       3.72027418      -2.02157237       0.26820304        1 
H       1.01921551       4.09633620       0.40099856        1 
H      -2.51000419       1.72063190      -0.16546809        1 
H       2.40587654       2.05041764       0.28725717        1 
