24
Lattice="0.0 0.0 0.0 0.0 0.0 0.0 0.0 0.0 0.0" Properties=species:S:1:pos:R:3:Z:I:1 pbc="F F F"
C       0.67457640       0.57933999      -0.00247748        6 
C      -0.72795155       0.51735201       0.15989448        6 
C       1.59445153      -0.57901049       0.26818455        6 
C      -1.47157160      -0.78282800       0.03311514        6 
O       2.59441430      -0.62673320      -0.64268067        8 
O       1.48887730      -1.34807459       1.18570423        8 
O      -2.79239505      -0.56689554      -0.19494354        8 
O      -1.00614081      -1.88995759       0.12414336        8 
C      -3.60476366      -1.74761233      -0.31460400        6 
C       3.55603286      -1.68190279      -0.45118351        6 
C       1.28710728       1.82509506      -0.16797185        6 
C       0.54497860       3.00289017      -0.13846086        6 
C      -0.83007427       2.94655822       0.06286625        6 
C      -1.45909485       1.71102801       0.17787373        6 
H      -3.26706128      -2.36109082      -1.15135868        1 
H       4.06143137      -1.56965424       0.50951446        1 
H      -1.41793539       3.85621293       0.10118210        1 
H      -3.55895897      -2.33753606       0.60203775        1 
H      -4.61554204      -1.38500657      -0.48922940        1 
H       4.26284847      -1.58121853      -1.27178992        1 
H       3.06122313      -2.65360447      -0.48402501        1 
H       1.04410260       3.95741836      -0.25951230        1 
H      -2.53512099       1.65858965       0.26432399        1 
H       2.36112783       1.86364543      -0.29675700        1 
