24
Lattice="0.0 0.0 0.0 0.0 0.0 0.0 0.0 0.0 0.0" Properties=species:S:1:pos:R:3:Z:I:1 pbc="F F F"
C       0.40161058      -0.72519397       0.10392193        6 
C      -0.95579839      -0.44968269      -0.18150377        6 
C       1.47326438       0.28207008      -0.19051379        6 
C      -1.58866656       0.91413431      -0.18397970        6 
O       2.69958218      -0.17881419       0.15225018        8 
O       1.30113539       1.37340252      -0.67510750        8 
O      -0.99889759       1.74526229       0.68611234        8 
O      -2.62395128       1.16968019      -0.75612590        8 
C      -1.56264902       3.06380687       0.78061535        6 
C       3.79870120       0.70534404      -0.12544922        6 
C       0.77829964      -2.04740917       0.37011234        6 
C      -0.15405721      -3.08203935       0.35981037        6 
C      -1.47816784      -2.81429113       0.02983973        6 
C      -1.87184448      -1.50329774      -0.22725667        6 
H      -1.49872487       3.57058495      -0.18349001        1 
H       3.83820765       0.94309764      -1.18948357        1 
H      -2.20803338      -3.61493339      -0.01050655        1 
H      -2.60638704       3.01344433       1.09517611        1 
H      -0.96023082       3.58106009       1.52375735        1 
H       4.69027018       0.16249930       0.18078256        1 
H       3.69749609       1.63024672       0.44461877        1 
H       0.16244332      -4.09504549       0.58039473        1 
H      -2.90778775      -1.27048619      -0.43955343        1 
H       1.82105855      -2.26270244       0.55611026        1 
