24
Lattice="0.0 0.0 0.0 0.0 0.0 0.0 0.0 0.0 0.0" Properties=species:S:1:pos:R:3:Z:I:1 pbc="F F F"
C       0.84777958      -0.69362214      -0.11760849        6 
C       0.74236767       0.68571531       0.11136942        6 
C      -0.28847726      -1.63944900       0.13538928        6 
C      -0.57215226       1.36637962       0.37219803        6 
O      -1.40062342      -1.31764223      -0.55032861        8 
O      -0.22542310      -2.55856950       0.91583739        8 
O      -1.25100637       1.56925520      -0.76801645        8 
O      -0.93809529       1.75042635       1.45648798        8 
C      -2.54329175       2.18975880      -0.63351691        6 
C      -2.56467220      -2.12401455      -0.28187315        6 
C       2.10531305      -1.25575424      -0.35696973        6 
C       3.23759650      -0.45318947      -0.42851569        6 
C       3.13034693       0.91764185      -0.19880232        6 
C       1.88886517       1.48121782       0.07938802        6 
H      -3.19608811       1.57084581      -0.01535168        1 
H      -2.37858097      -3.16424758      -0.55248207        1 
H       4.01209706       1.54687510      -0.22921654        1 
H      -2.45068632       3.17786930      -0.18074062        1 
H      -2.93294307       2.26482909      -1.64610337        1 
H      -3.35411331      -1.70345167      -0.90081221        1 
H      -2.82951511      -2.06850317       0.77501070        1 
H       4.20286416      -0.89885749      -0.63813395        1 
H       1.80145055       2.54389459       0.27294368        1 
H       2.18464920      -2.32994743      -0.47404193        1 
