24
Lattice="0.0 0.0 0.0 0.0 0.0 0.0 0.0 0.0 0.0" Properties=species:S:1:pos:R:3:Z:I:1 pbc="F F F"
C       0.79902516      -0.65407413       0.12370200        6 
C       0.87253036       0.74146203       0.01697701        6 
C      -0.51088873      -1.36035411       0.33878064        6 
C      -0.35607641       1.56804833      -0.20753513        6 
O      -1.15963424      -1.54859325      -0.82755866        8 
O      -0.94223905      -1.68956802       1.41346931        8 
O      -1.28746618       1.34722515       0.73824305        8 
O      -0.52184597       2.28746413      -1.16258965        8 
C      -2.56313791       1.98624377       0.53833325        6 
C      -2.45757764      -2.17144414      -0.73716248        6 
C       1.97226949      -1.40897260       0.15642288        6 
C       3.21281712      -0.78477275       0.06945643        6 
C       3.28743718       0.60239218      -0.04798651        6 
C       2.12091727       1.35799542      -0.09474631        6 
H      -2.44919775       3.07099040       0.53288499        1 
H      -2.37315012      -3.16680485      -0.29924124        1 
H       4.25138961       1.09254178      -0.11663618        1 
H      -3.00051939       1.66572771      -0.40867890        1 
H      -3.17757668       1.66774017       1.37709540        1 
H      -2.82027318      -2.23056227      -1.76070369        1 
H      -3.12617047      -1.56471665      -0.12427341        1 
H       4.11774645      -1.38069039       0.09399360        1 
H       2.16594486       2.43234385      -0.22651604        1 
H       1.90860554      -2.48662636       0.25431233        1 
