24
Lattice="0.0 0.0 0.0 0.0 0.0 0.0 0.0 0.0 0.0" Properties=species:S:1:pos:R:3:Z:I:1 pbc="F F F"
C       0.83990192      -0.69353199      -0.07154636        6 
C       0.83274728       0.69601559       0.10178837        6 
C      -0.43576529      -1.44447893      -0.32077056        6 
C      -0.45792105       1.42610203       0.34049153        6 
O      -1.19757127      -1.50823012       0.78723378        8 
O      -0.76506306      -1.88617373      -1.39323437        8 
O      -1.15835654       1.56554181      -0.80137831        8 
O      -0.84955952       1.78457761       1.42208930        8 
C      -2.46313254       2.16647890      -0.67735159        6 
C      -2.48917941      -2.13048692       0.63532274        6 
C       2.05415141      -1.37191394      -0.18349735        6 
C       3.25657684      -0.67923789      -0.08481815        6 
C       3.24962756       0.70212541       0.10170928        6 
C       2.04112388       1.38555524       0.20236122        6 
H      -3.09110342       1.57140624      -0.01213977        1 
H      -3.08331687      -1.59220087      -0.10500724        1 
H       4.18361445       1.24700490       0.17303124        1 
H      -2.38023262       3.17964913      -0.28210149        1 
H      -2.87116469       2.17763442      -1.68523497        1 
H      -2.95256580      -2.07353719       1.61735843        1 
H      -2.37696977      -3.16856335       0.31988285        1 
H       4.19514040      -1.21568184      -0.16070345        1 
H       2.03022782       2.45720088       0.36303421        1 
H       2.04998283      -2.44253433      -0.35208429        1 
