24
Lattice="0.0 0.0 0.0 0.0 0.0 0.0 0.0 0.0 0.0" Properties=species:S:1:pos:R:3:Z:I:1 pbc="F F F"
C       0.70315162       0.70935442      -0.11498615        6 
C      -0.69005932       0.62631824       0.03817180        6 
C       1.52616743      -0.51744354      -0.39115989        6 
C      -1.33880087      -0.71263607       0.16382737        6 
O       2.40705643      -0.75343702       0.59444715        8 
O       1.43665447      -1.17194114      -1.39966397        8 
O      -2.63858865      -0.68356050      -0.19372722        8 
O      -0.78088995      -1.70640333       0.56679623        8 
C      -3.35419834      -1.92700360      -0.06575708        6 
C       3.20914515      -1.94248924       0.44054765        6 
C       1.32235870       1.95768440      -0.12540687        6 
C       0.56379945       3.12038745      -0.00159831        6 
C      -0.82012718       3.04076956       0.13613517        6 
C      -1.44429065       1.79697046       0.15442941        6 
H      -2.90503856      -2.68941818      -0.70360284        1 
H       2.56362201      -2.81973781       0.38176640        1 
H      -1.41210032       3.94336016       0.23318008        1 
H      -3.34064236      -2.27060784       0.96977963        1 
H      -4.37044604      -1.70852017      -0.38581519        1 
H       3.83590774      -1.98358465       1.32826188        1 
H       3.81866784      -1.87856652      -0.46198921        1 
H       1.05504121       4.08647100      -0.01563044        1 
H      -2.51733373       1.72079359       0.27173380        1 
H       2.39751994       2.01779159      -0.24439311        1 
