24
Lattice="0.0 0.0 0.0 0.0 0.0 0.0 0.0 0.0 0.0" Properties=species:S:1:pos:R:3:Z:I:1 pbc="F F F"
C       0.91187751      -0.25982013       0.24049144        6 
C       0.36657998       0.95270358      -0.19400502        6 
C       0.02795085      -1.46320625       0.40012866        6 
C      -1.11097843       1.06451359      -0.44578437        6 
O       0.24908519      -2.35375236      -0.58292420        8 
O      -0.75422767      -1.63429269       1.30331475        8 
O      -1.76269488       1.46082400       0.65675522        8 
O      -1.64021104       0.84216290      -1.50797831        8 
C      -3.19982961       1.53198632       0.55520383        6 
C      -0.54850962      -3.55524292      -0.54115448        6 
C       2.28631917      -0.36729794       0.45224000        6 
C       3.10873701       0.74053028       0.26789454        6 
C       2.56366331       1.95043255      -0.15878645        6 
C       1.19462354       2.05643117      -0.39055664        6 
H      -3.49388421       2.23937555      -0.22138475        1 
H      -0.37641957      -4.09630534       0.39050991        1 
H       3.20345676       2.81138169      -0.31327654        1 
H      -3.60603999       0.54650914       0.32344318        1 
H      -3.53979845       1.86549882       1.53253891        1 
H      -0.22445925      -4.14413663      -1.39584028        1 
H      -1.60744816      -3.30717005      -0.62515287        1 
H       4.17427759       0.65550904       0.44627994        1 
H       0.76665669       2.99339093      -0.72739068        1 
H       2.70712604      -1.31697568       0.76123296        1 
