24
Lattice="0.0 0.0 0.0 0.0 0.0 0.0 0.0 0.0 0.0" Properties=species:S:1:pos:R:3:Z:I:1 pbc="F F F"
C       0.68241884       0.56709950       0.19027630        6 
C      -0.65408724       0.79177692      -0.17262834        6 
C       1.23404178      -0.82377428       0.17487856        6 
C      -1.62339550      -0.33287687      -0.41834092        6 
O       2.46810641      -0.85458591      -0.37025705        8 
O       0.68139636      -1.80206933       0.61898558        8 
O      -2.08753742      -0.83072903       0.73424683        8 
O      -1.99684839      -0.67715531      -1.51379188        8 
C      -2.96818084      -1.96595243       0.62631597        6 
C       3.10046471      -2.14886208      -0.41088122        6 
C       1.52359516       1.65914028       0.42494524        6 
C       1.02910064       2.95729316       0.35242784        6 
C      -0.29776375       3.17691903      -0.01360778        6 
C      -1.13325465       2.09664925      -0.28283560        6 
H      -3.85567044      -1.71058073       0.04539726        1 
H       3.21343166      -2.55053173       0.59717276        1 
H      -0.68244062       4.18720020      -0.09224681        1 
H      -2.44451321      -2.79612197       0.15047619        1 
H      -3.23541023      -2.21963479       1.64931747        1 
H       4.07122250      -1.98048352      -0.87116378        1 
H       2.50581589      -2.84102297      -1.00870981        1 
H       1.68315017       3.79578455       0.56087141        1 
H      -2.16387216       2.26045498      -0.57514401        1 
H       2.56453126       1.48187449       0.66291822        1 
