24
Lattice="0.0 0.0 0.0 0.0 0.0 0.0 0.0 0.0 0.0" Properties=species:S:1:pos:R:3:Z:I:1 pbc="F F F"
C      -0.49003536      -0.71515763       0.04813086        6 
C      -0.96456802       0.61059197       0.09117516        6 
C       0.92932332      -1.11614172       0.33584908        6 
C      -0.10270972       1.83136241      -0.02454113        6 
O       1.42043712      -1.89266976      -0.65288081        8 
O       1.53032555      -0.84970946       1.34448918        8 
O       1.20741375       1.54809994      -0.06434811        8 
O      -0.54282382       2.95065801      -0.16323230        8 
C       2.10099043       2.66529616      -0.20688731        6 
C       2.74673408      -2.41271213      -0.44118143        6 
C      -1.40600271      -1.76476115      -0.07747390        6 
C      -2.77596017      -1.52123092      -0.12324009        6 
C      -3.24845211      -0.21369817      -0.04957555        6 
C      -2.34469529       0.83928927       0.03335882        6 
H       1.94749606       3.15495552      -1.17003981        1 
H       3.45904667      -1.59579516      -0.31839261        1 
H      -4.31297887      -0.01276190      -0.08088586        1 
H       1.93715894       3.38597369       0.59479104        1 
H       3.10049521       2.24129432      -0.14403694        1 
H       2.97580502      -2.99201109      -1.33275441        1 
H       2.77042722      -3.04591609       0.44725440        1 
H      -3.46800030      -2.35122588      -0.21061738        1 
H      -2.68906998       1.86563575       0.03278101        1 
H      -1.03647480      -2.78207288      -0.12040600        1 
