24
Lattice="0.0 0.0 0.0 0.0 0.0 0.0 0.0 0.0 0.0" Properties=species:S:1:pos:R:3:Z:I:1 pbc="F F F"
C       0.70598009       0.63072323      -0.04408724        6 
C      -0.69922962       0.60998460       0.01648519        6 
C       1.47999286      -0.62679830      -0.30063744        6 
C      -1.43258880      -0.67659863       0.23601746        6 
O       2.61934627      -0.66775675       0.41768623        8 
O       1.14850014      -1.47912084      -1.08661182        8 
O      -2.66693856      -0.64801767      -0.30892303        8 
O      -0.99741876      -1.61563963       0.85610209        8 
C      -3.46445727      -1.83136719      -0.11342812        6 
C       3.43530715      -1.83926277       0.22099552        6 
C       1.37562975       1.85431610      -0.04541561        6 
C       0.66267016       3.05171374      -0.00531585        6 
C      -0.72835894       3.03187695       0.03262845        6 
C      -1.40488226       1.81400953       0.04859520        6 
H      -2.96259511      -2.69993806      -0.54177671        1 
H       2.87153724      -2.73689545       0.47825615        1 
H      -1.28813210       3.95950186       0.06113271        1 
H      -3.63718979      -2.00418132       0.95018242        1 
H      -4.40201091      -1.63542740      -0.62884257        1 
H       4.28543156      -1.71367487       0.88752637        1 
H       3.76387154      -1.90568106      -0.81742750        1 
H       1.19521340       3.99560811      -0.01246967        1 
H      -2.48531195       1.78744904       0.10531852        1 
H       2.45690737       1.86262073      -0.09792274        1 
