24
Lattice="0.0 0.0 0.0 0.0 0.0 0.0 0.0 0.0 0.0" Properties=species:S:1:pos:R:3:Z:I:1 pbc="F F F"
C       0.70183657       0.62452135      -0.00944586        6 
C      -0.69334156       0.72662509       0.10975367        6 
C       1.32851641      -0.72766694      -0.05139323        6 
C      -1.56814598      -0.46932068       0.37710478        6 
O       2.67305682      -0.67835347       0.04387458        8 
O       0.71238966      -1.76268725      -0.16313165        8 
O      -2.21716497      -0.85589081      -0.73323866        8 
O      -1.72147110      -0.95857847       1.46743459        8 
C      -3.05472122      -2.02089428      -0.59529222        6 
C       3.34844943      -1.94919548       0.01164319        6 
C       1.46776600       1.78746194      -0.14604943        6 
C       0.85534150       3.03601295      -0.17226183        6 
C      -0.53072356       3.13259343      -0.06249683        6 
C      -1.30052655       1.98092411       0.07866270        6 
H      -2.45011885      -2.87882519      -0.29850925        1 
H       3.00588178      -2.58190582       0.83155513        1 
H      -1.01356896       4.10282670      -0.08584529        1 
H      -3.83245590      -1.84727325       0.14985263        1 
H      -3.49186887      -2.17963532      -1.57851183        1 
H       4.40535982      -1.71700289       0.12109789        1 
H       3.16163912      -2.45687669      -0.93598932        1 
H       1.45735321       3.93047155      -0.28062121        1 
H      -2.37763414       2.05330260       0.17466995        1 
H       2.54140507       1.69916405      -0.24282988        1 
