24
Lattice="0.0 0.0 0.0 0.0 0.0 0.0 0.0 0.0 0.0" Properties=species:S:1:pos:R:3:Z:I:1 pbc="F F F"
C       0.70078571       0.52552077       0.05938811        6 
C      -0.71177531       0.50213197       0.11525971        6 
C       1.58894766      -0.68303599       0.18129406        6 
C      -1.54783973      -0.75094713       0.15027648        6 
O       2.68679734      -0.53627647      -0.60801186        8 
O       1.40511654      -1.65209336       0.86661547        8 
O      -2.70989551      -0.54572619      -0.52934133        8 
O      -1.28945254      -1.79616888       0.68316346        8 
C      -3.63049096      -1.65042186      -0.53340457        6 
C       3.63901810      -1.61288538      -0.54629837        6 
C       1.35107238       1.76318329      -0.04439639        6 
C       0.64398217       2.95961467      -0.05309311        6 
C      -0.74493626       2.93724268       0.01643658        6 
C      -1.40855552       1.71812778       0.07626469        6 
H      -3.17628750      -2.52603898      -0.99991228        1 
H       4.03085447      -1.72003163       0.46669902        1 
H      -1.31286938       3.86029861       0.00992860        1 
H      -3.92969122      -1.90449336       0.48499542        1 
H      -4.48682146      -1.30950856      -1.11154458        1 
H       4.43160409      -1.33749386      -1.23857999        1 
H       3.17250657      -2.55192676      -0.84809496        1 
H       1.17769336       3.90078745      -0.11579736        1 
H      -2.48914048       1.69448227       0.09102689        1 
H       2.43029814       1.77442696      -0.10908824        1 
