24
Lattice="0.0 0.0 0.0 0.0 0.0 0.0 0.0 0.0 0.0" Properties=species:S:1:pos:R:3:Z:I:1 pbc="F F F"
C       0.71303805       0.59185216       0.01450110        6 
C      -0.69628419       0.59193947      -0.00493833        6 
C       1.48028809      -0.67072579      -0.23361413        6 
C      -1.47865088      -0.66113575       0.25299199        6 
O       2.71695396      -0.62169592       0.30675475        8 
O       1.06494845      -1.61331499      -0.86037532        8 
O      -2.67828735      -0.63338541      -0.36748623        8 
O      -1.11172506      -1.56876931       0.95587056        8 
C      -3.52410592      -1.77666060      -0.14196783        6 
C       3.53192093      -1.78999969       0.09592894        6 
C       1.39615527       1.80926090       0.03050631        6 
C       0.70090706       3.01752555       0.02002925        6 
C      -0.68914333       3.01678552      -0.02754669        6 
C      -1.38188658       1.80745709      -0.03137559        6 
H      -3.02787218      -2.68648990      -0.48202161        1 
H       3.04732075      -2.66941099       0.52232000        1 
H      -1.23737821       3.95155041      -0.04736024        1 
H      -3.76285152      -1.87220430       0.91858619        1 
H      -4.42420639      -1.58893665      -0.72326736        1 
H       4.47079529      -1.58297761       0.60454462        1 
H       3.69758764      -1.95313704      -0.97024013        1 
H       1.24742529       3.95328950       0.03245474        1 
H      -2.46402219       1.79761573      -0.03211919        1 
H       2.47804248       1.80120703       0.02731774        1 
