24
Lattice="0.0 0.0 0.0 0.0 0.0 0.0 0.0 0.0 0.0" Properties=species:S:1:pos:R:3:Z:I:1 pbc="F F F"
C       0.62412942      -0.82349851       0.17630203        6 
C      -0.69143091      -0.53250092      -0.21158068        6 
C       1.63783794       0.25535878       0.43669285        6 
C      -1.18643000       0.88094042      -0.23921750        6 
O       2.12716113       0.74016096      -0.71079104        8 
O       2.00584426       0.59070010       1.53676577        8 
O      -2.33686751       0.99423904       0.45747827        8 
O      -0.67598131       1.79704441      -0.83684711        8 
C      -2.94526608       2.30011341       0.46212787        6 
C       3.06072414       1.83097059      -0.59483426        6 
C       1.02683921      -2.15304505       0.31184305        6 
C       0.13778149      -3.19021120       0.04287113        6 
C      -1.16931024      -2.90354147      -0.34673533        6 
C      -1.58814638      -1.58070203      -0.44427043        6 
H      -2.27073222       3.03128495       0.90962972        1 
H       2.58540533       2.67601117      -0.09530456        1 
H      -1.86651043      -3.70713891      -0.55402550        1 
H      -3.18986574       2.61042110      -0.55492884        1 
H      -3.84712310       2.19443879       1.06075553        1 
H       3.32514770       2.09099260      -1.61685923        1 
H       3.94279199       1.52161839      -0.03215701        1 
H       0.46397450      -4.21912760       0.14212442        1 
H      -2.61523270      -1.35187888      -0.70004574        1 
H       2.04062506      -2.37129621       0.62624128        1 
