24
Lattice="0.0 0.0 0.0 0.0 0.0 0.0 0.0 0.0 0.0" Properties=species:S:1:pos:R:3:Z:I:1 pbc="F F F"
C       0.68671020       0.63355178      -0.16459998        6 
C      -0.66473128       0.73795033       0.18827775        6 
C       1.30650061      -0.72260310      -0.27000446        6 
C      -1.48938550      -0.49518058       0.43261995        6 
O       2.48682162      -0.78571128       0.37285449        8 
O       0.83273298      -1.64114052      -0.89712989        8 
O      -2.29440865      -0.75426289      -0.60811109        8 
O      -1.47095025      -1.13104938       1.45811498        8 
C      -3.10342069      -1.94332553      -0.49903665        6 
C       3.17042048      -2.05315493       0.30331018        6 
C       1.44443679       1.79035373      -0.35740821        6 
C       0.84612503       3.04258966      -0.25116972        6 
C      -0.50319994       3.14392348       0.08437628        6 
C      -1.25746640       1.99391057       0.30299326        6 
H      -2.46262058      -2.82155835      -0.41170235        1 
H       2.55342990      -2.83850546       0.74165007        1 
H      -0.97015068       4.11778662       0.17605848        1 
H      -3.75962988      -1.88155682       0.37019550        1 
H      -3.68272233      -1.98139816      -1.41857333        1 
H       4.08472101      -1.91832632       0.87646681        1 
H       3.39654841      -2.30783113      -0.73315866        1 
H       1.43319684       3.93737916      -0.42152654        1 
H      -2.30610726       2.06926429       0.56608909        1 
H       2.49626745       1.70108281      -0.59846252        1 
