24
Lattice="0.0 0.0 0.0 0.0 0.0 0.0 0.0 0.0 0.0" Properties=species:S:1:pos:R:3:Z:I:1 pbc="F F F"
C      -0.72847803      -0.78628987       0.09317281        6 
C      -0.72802628       0.58065139      -0.21478076        6 
C       0.52501066      -1.56017955       0.37964286        6 
C       0.54227596       1.36911352      -0.36352965        6 
O       1.31659053      -1.64482953      -0.69811788        8 
O       0.77680310      -2.05888275       1.45101094        8 
O       0.71449021       2.18467843       0.69677967        8 
O       1.29371387       1.31927801      -1.30343218        8 
C       1.88196318       3.03014729       0.66062452        6 
C       2.56214547      -2.34703684      -0.52322934        6 
C      -1.94495148      -1.45875563       0.24116485        6 
C      -3.15065287      -0.79526951       0.04175273        6 
C      -3.15019062       0.56346198      -0.26830890        6 
C      -1.94443370       1.24957467      -0.37612115        6 
H       2.78832685       2.42375171       0.62966911        1 
H       3.15704240      -1.87513255       0.25985315        1 
H      -4.08569214       1.09136858      -0.41327175        1 
H       1.85401200       3.68038723      -0.21490464        1 
H       1.84238547       3.61396157       1.57711520        1 
H       3.06614495      -2.27748451      -1.48396216        1 
H       2.37627822      -3.38869947      -0.25677726        1 
H      -4.08612818      -1.33379415       0.14043428        1 
H      -1.94228195       2.31188274      -0.59022730        1 
H      -1.93710720      -2.50708463       0.51537809        1 
