24
Lattice="0.0 0.0 0.0 0.0 0.0 0.0 0.0 0.0 0.0" Properties=species:S:1:pos:R:3:Z:I:1 pbc="F F F"
C       0.19790449      -0.86439356       0.00428316        6 
C      -1.07208636      -0.26558913      -0.08088330        6 
C       1.42934711      -0.05235017      -0.22741154        6 
C      -1.28483928       1.21610982      -0.17861224        6 
O       2.53235698      -0.65198595       0.26752639        8 
O       1.45586249       1.00316516      -0.81558886        8 
O      -0.68221179       1.86252209       0.83345774        8 
O      -1.98400256       1.74591916      -1.00706534        8 
C      -0.74367863       3.29976268       0.78336090        6 
C       3.77674691       0.03209273       0.03260770        6 
C       0.28993782      -2.25032489       0.17471491        6 
C      -0.85740426      -3.03555567       0.24549685        6 
C      -2.11258885      -2.44249848       0.13214962        6 
C      -2.21563599      -1.06351213      -0.03366978        6 
H      -0.25465029       3.65866695      -0.12332377        1 
H       3.94759537       0.15542568      -1.03785251        1 
H      -3.00986763      -3.04934688       0.17432734        1 
H      -1.78007688       3.63993869       0.79996262        1 
H      -0.21179387       3.64199441       1.66814331        1 
H       4.54210204      -0.60178306       0.47462528        1 
H       3.76683929       1.01289242       0.51011375        1 
H      -0.76973820      -4.10808108       0.37551354        1 
H      -3.18690874      -0.59144056      -0.11900113        1 
H       1.26842828      -2.70789234       0.23222212        1 
