24
Lattice="0.0 0.0 0.0 0.0 0.0 0.0 0.0 0.0 0.0" Properties=species:S:1:pos:R:3:Z:I:1 pbc="F F F"
C       0.98214178      -0.54721975       0.12658842        6 
C       0.42298662       0.74465038       0.02202648        6 
C       0.22425818      -1.83743189      -0.02657857        6 
C      -1.01629737       1.07030263       0.30597229        6 
O      -1.10583232      -1.69513995       0.02746456        8 
O       0.76483587      -2.89173950      -0.27941026        8 
O      -1.51019118       1.92523131      -0.61824060        8 
O      -1.64601487       0.67449599       1.25228216        8 
C      -2.86454489       2.36390950      -0.40259647        6 
C      -1.88788089      -2.88322457      -0.18325648        6 
C       2.37447156      -0.68449408       0.11234973        6 
C       3.21139361       0.42105121       0.01881980        6 
C       2.65815996       1.68999373      -0.12492493        6 
C       1.27500513       1.84432351      -0.12531760        6 
H      -3.54243644       1.50925470      -0.38650839        1 
H      -1.72943192      -3.27067470      -1.19116830        1 
H       3.29661727       2.55953760      -0.22999536        1 
H      -2.94643944       2.90308059       0.54270066        1 
H      -3.09316368       3.01945861      -1.23991481        1 
H      -2.92101249      -2.57163325      -0.04713681        1 
H      -1.61896296      -3.65034418       0.54384076        1 
H       4.28671115       0.28764231       0.03110331        1 
H       0.84006905       2.83151783      -0.21605156        1 
H       2.78201659      -1.68677955       0.14385110        1 
