24
Lattice="0.0 0.0 0.0 0.0 0.0 0.0 0.0 0.0 0.0" Properties=species:S:1:pos:R:3:Z:I:1 pbc="F F F"
C       0.60323700       0.64963689       0.09436998        6 
C      -0.78175204       0.71491217      -0.14330156        6 
C       1.32030324      -0.65005784      -0.07646827        6 
C      -1.65993290      -0.49557043      -0.30298535        6 
O       2.66145961      -0.50484040      -0.01384361        8 
O       0.78671796      -1.72232370      -0.24363880        8 
O      -1.74024604      -1.18946849       0.84281272        8 
O      -2.30661447      -0.73348100      -1.29366172        8 
C      -2.48400533      -2.42038828       0.78002915        6 
C       3.42854886      -1.71250111      -0.17020644        6 
C       1.31345938       1.83544336       0.31681056        6 
C       0.66000320       3.06339006       0.32570221        6 
C      -0.70808928       3.12360369       0.06889340        6 
C      -1.42270339       1.95271111      -0.16813036        6 
H      -3.51063428      -2.23545639       0.46106788        1 
H       3.18395162      -2.42399483       0.61993664        1 
H      -1.22016803       4.07886666       0.05292508        1 
H      -2.00061408      -3.10590644       0.08226341        1 
H      -2.46073770      -2.82347575       1.78998561        1 
H       4.46917752      -1.40385421      -0.10111149        1 
H       3.22559385      -2.16956697      -1.13976933        1 
H       1.22105841       3.97174267       0.51137512        1 
H      -2.48724061       1.98999433      -0.36659097        1 
H       2.38249803       1.78333160       0.47028234        1 
