24
Lattice="0.0 0.0 0.0 0.0 0.0 0.0 0.0 0.0 0.0" Properties=species:S:1:pos:R:3:Z:I:1 pbc="F F F"
C       0.83680402      -0.68192204       0.19289515        6 
C       0.71131909       0.68287103      -0.12178454        6 
C      -0.25730950      -1.69030217       0.00097492        6 
C      -0.59470388       1.40086744      -0.31564297        6 
O      -1.48923797      -1.21089826       0.24536759        8 
O      -0.05384061      -2.80933774      -0.41054993        8 
O      -1.28962654       1.47323021       0.83024564        8 
O      -0.91603404       1.95955078      -1.33731652        8 
C      -2.56386570       2.13679686       0.75295490        6 
C      -2.58353928      -2.10310850      -0.03954516        6 
C       2.11094846      -1.20871166       0.43689381        6 
C       3.23742765      -0.39674981       0.41627200        6 
C       3.11142652       0.95022827       0.08081042        6 
C       1.85563328       1.48099997      -0.19512450        6 
H      -2.44208359       3.16736534       0.41680829        1 
H      -2.58029276      -2.38462954      -1.09343643        1 
H       3.98763737       1.58599650       0.03007763        1 
H      -3.22175673       1.60888055       0.06006284        1 
H      -2.96704942       2.10553393       1.76258645        1 
H      -3.48230891      -1.54199775       0.20673938        1 
H      -2.51199195      -3.00182933       0.57431417        1 
H       4.21208949      -0.81932315       0.63017471        1 
H       1.74857636       2.52524783      -0.46298983        1 
H       2.20177282      -2.27244853       0.61809923        1 
