24
Lattice="0.0 0.0 0.0 0.0 0.0 0.0 0.0 0.0 0.0" Properties=species:S:1:pos:R:3:Z:I:1 pbc="F F F"
C       0.69026608       0.63228537       0.00574660        6 
C      -0.70596189       0.73975482       0.10945368        6 
C       1.31504119      -0.72143017      -0.00632720        6 
C      -1.59093520      -0.45144552       0.36686077        6 
O       2.66283754      -0.67068287      -0.00277110        8 
O       0.69543478      -1.76069862      -0.01891964        8 
O      -2.13994517      -0.90469018      -0.77146514        8 
O      -1.82781008      -0.88624678       1.46519619        8 
C      -2.95309921      -2.08866025      -0.64686527        6 
C       3.33602123      -1.94338362      -0.01225281        6 
C       1.46055358       1.79213065      -0.13689255        6 
C       0.85235257       3.04194676      -0.18026583        6 
C      -0.53431879       3.14365076      -0.08245623        6 
C      -1.30865522       1.99574840       0.06350169        6 
H      -2.35833425      -2.90351833      -0.23242961        1 
H       3.06006170      -2.52579758       0.86794714        1 
H      -1.01391580       4.11515214      -0.11790585        1 
H      -3.81237212      -1.89816737      -0.00194527        1 
H      -3.27651884      -2.32312637      -1.65851849        1 
H       4.39768675      -1.70780000      -0.00001451        1 
H       3.07610168      -2.50561166      -0.91043740        1 
H       1.45784321       3.93355862      -0.29268753        1 
H      -2.38626282       2.07241735       0.15030035        1 
H       2.53483818       1.70000464      -0.22125099        1 
