24
Lattice="0.0 0.0 0.0 0.0 0.0 0.0 0.0 0.0 0.0" Properties=species:S:1:pos:R:3:Z:I:1 pbc="F F F"
C      -0.70684474      -0.65456197       0.12227521        6 
C      -0.88470990       0.73696410       0.05629744        6 
C       0.62650923      -1.32258109       0.32164050        6 
C       0.24227583       1.71265815      -0.04306476        6 
O       1.19735413      -1.62283251      -0.86028101        8 
O       1.09920556      -1.59575034       1.39443807        8 
O       1.39613932       1.21282591       0.43355140        8 
O       0.14143461       2.81741222      -0.52449006        8 
C       2.55677134       2.05452690       0.32177460        6 
C       2.47922243      -2.27759938      -0.79057805        6 
C      -1.82528278      -1.49177479       0.09686988        6 
C      -3.10882714      -0.96222155       0.00664285        6 
C      -3.28824156       0.41861216      -0.06039357        6 
C      -2.18082756       1.25724468      -0.05011969        6 
H       2.75641492       2.28950751      -0.72477079        1 
H       3.19956455      -1.64206746      -0.27325786        1 
H      -4.28529414       0.83754196      -0.12990885        1 
H       2.40854202       2.98099901       0.87810385        1 
H       3.37163622       1.47659930       0.75179130        1 
H       2.77854111      -2.43739563      -1.82381625        1 
H       2.39354207      -3.22809189      -0.26206714        1 
H      -3.96508441      -1.62700162      -0.01033138        1 
H      -2.29661915       2.33056653      -0.13335243        1 
H      -1.68623858      -2.56528626       0.15353247        1 
