24
Lattice="0.0 0.0 0.0 0.0 0.0 0.0 0.0 0.0 0.0" Properties=species:S:1:pos:R:3:Z:I:1 pbc="F F F"
C       0.68812734       0.59974501       0.00139737        6 
C      -0.71822819       0.54860644       0.11930704        6 
C       1.56584956      -0.58346192       0.29769949        6 
C      -1.45247731      -0.74693921      -0.06250972        6 
O       2.60364705      -0.65505035      -0.56406613        8 
O       1.39653284      -1.34948893       1.20985886        8 
O      -2.79490117      -0.57169770      -0.00719862        8 
O      -0.94492128      -1.82730095      -0.23199099        8 
C      -3.58737195      -1.76010120      -0.17519875        6 
C       3.51727811      -1.74651006      -0.34243316        6 
C       1.31921553       1.83847555      -0.12659411        6 
C       0.58454850       3.02263932      -0.11110946        6 
C      -0.79674114       2.97692761       0.04440169        6 
C      -1.44125808       1.74593243       0.13131221        6 
H      -3.39389468      -2.21480319      -1.14799655        1 
H       3.96144710      -1.67840126       0.65182595        1 
H      -1.37696678       3.89188492       0.07063300        1 
H      -3.36087957      -2.48312487       0.60973076        1 
H      -4.62139597      -1.42895783      -0.10601454        1 
H       4.27886472      -1.64712768      -1.11269166        1 
H       2.99395905      -2.69902070      -0.43738613        1 
H       1.09458362       3.97423745      -0.20692922        1 
H      -2.51989683       1.70069324       0.18635903        1 
H       2.39782656       1.86844176      -0.21399431        1 
