24
Lattice="0.0 0.0 0.0 0.0 0.0 0.0 0.0 0.0 0.0" Properties=species:S:1:pos:R:3:Z:I:1 pbc="F F F"
C       0.86192379      -0.69255154       0.06192179        6 
C       0.73240366       0.69380088      -0.13068385        6 
C      -0.27867567      -1.65946701       0.04336542        6 
C      -0.58906935       1.39549030      -0.27189342        6 
O      -1.43788246      -1.09073766      -0.33799212        8 
O      -0.17281688      -2.83787387       0.29515451        8 
O      -1.22577570       1.46804110       0.91144009        8 
O      -0.99462573       1.88867582      -1.29407810        8 
C      -2.53030583       2.07537763       0.88544516        6 
C      -2.58297686      -1.95794460      -0.41419067        6 
C       2.13837968      -1.24642435       0.21165110        6 
C       3.27197347      -0.44497863       0.16790293        6 
C       3.14095765       0.92639396      -0.04339300        6 
C       1.87682027       1.48962439      -0.19442353        6 
H      -2.46923967       3.10341441       0.52582391        1 
H      -2.39577130      -2.77433856      -1.11265731        1 
H       4.02018713       1.55832527      -0.09157037        1 
H      -3.19620358       1.50592038       0.23444480        1 
H      -2.88336609       2.04805100       1.91385813        1 
H      -3.39659119      -1.32960880      -0.76953737        1 
H      -2.81364326      -2.36998115       0.56942132        1 
H       4.25309430      -0.88973526       0.28565340        1 
H       1.76980203       2.55505876      -0.36059093        1 
H       2.21620984      -2.31729800       0.35183687        1 
