24
Lattice="0.0 0.0 0.0 0.0 0.0 0.0 0.0 0.0 0.0" Properties=species:S:1:pos:R:3:Z:I:1 pbc="F F F"
C       0.92210645       0.61347948      -0.10972102        6 
C      -0.47010234       0.74039591       0.04951132        6 
C       1.61351777      -0.71458813      -0.23138720        6 
C      -1.35816666      -0.44303521      -0.15991274        6 
O       1.40310223      -1.46730206       0.86134209        8 
O       2.33924865      -1.02018442      -1.14509591        8 
O      -2.64778846      -0.16919729       0.13475598        8 
O      -0.99214685      -1.52635317      -0.55251295        8 
C      -3.58021356      -1.24777032      -0.06039935        6 
C       1.88406841      -2.82223331       0.79648480        6 
C       1.72648427       1.75153916      -0.09788703        6 
C       1.16536236       3.01085483       0.10117277        6 
C      -0.20954980       3.13900301       0.28507138        6 
C      -1.02287657       2.01119771       0.24431859        6 
H      -3.58043958      -1.56817746      -1.10333120        1 
H       1.36062520      -3.35589676       0.00144837        1 
H      -0.65131651       4.11628161       0.44080237        1 
H      -3.32018950      -2.09526365       0.57548746        1 
H      -4.55085839      -0.84313721       0.21769036        1 
H       1.65223974      -3.25777997       1.76583372        1 
H       2.95861107      -2.84433020       0.61025614        1 
H       1.80195185       3.88793320       0.11352161        1 
H      -2.09543780       2.10613851       0.34603495        1 
H       2.79504926       1.63968071      -0.23686843        1 
