24
Lattice="0.0 0.0 0.0 0.0 0.0 0.0 0.0 0.0 0.0" Properties=species:S:1:pos:R:3:Z:I:1 pbc="F F F"
C       0.61994849       0.62581817      -0.12351352        6 
C      -0.77051235       0.86793935      -0.16797716        6 
C       1.27352644      -0.70199242      -0.38791275        6 
C      -1.85060753      -0.16168121       0.03415665        6 
O       2.25846935      -0.93830005       0.51130700        8 
O       1.00966517      -1.44960630      -1.29283326        8 
O      -1.48814442      -1.40992343      -0.27680669        8 
O      -2.93129406       0.11636620       0.50651944        8 
C      -2.46101065      -2.44048908      -0.03057402        6 
C       3.00760286      -2.15093182       0.30978475        6 
C       1.49535197       1.71536741      -0.03249093        6 
C       1.02392126       3.02373790      -0.03110212        6 
C      -0.34508459       3.26379776      -0.10765825        6 
C      -1.22691814       2.19105331      -0.14205755        6 
H      -2.72238153      -2.47468031       1.02835471        1 
H       2.35002284      -3.01925702       0.37451389        1 
H      -0.72686558       4.27806111      -0.11096168        1 
H      -3.36306252      -2.26129893      -0.61742721        1 
H      -1.97898626      -3.36459880      -0.34116424        1 
H       3.74720825      -2.17027816       1.10714993        1 
H       3.49306335      -2.14297485      -0.66747636        1 
H       1.72478437       3.84861491       0.02490456        1 
H      -2.29637306       2.35617142      -0.12135108        1 
H       2.55951877       1.52367681       0.01638453        1 
