24
Lattice="0.0 0.0 0.0 0.0 0.0 0.0 0.0 0.0 0.0" Properties=species:S:1:pos:R:3:Z:I:1 pbc="F F F"
C       0.69362978      -0.77246861      -0.17033261        6 
C      -0.65992605      -0.58321941       0.14853247        6 
C       1.62581193       0.38261105      -0.41296301        6 
C      -1.24596017       0.79012369       0.11628169        6 
O       2.11558377       0.85288564       0.74101485        8 
O       1.94723925       0.77369226      -1.50827279        8 
O      -2.53891087       0.76640598      -0.26982704        8 
O      -0.66525508       1.80379597       0.42686652        8 
C      -3.21158451       2.03920942      -0.29789633        6 
C       2.94001853       2.03004641       0.64210700        6 
C       1.21005783      -2.06569578      -0.25104193        6 
C       0.39533566      -3.16746139      -0.00173313        6 
C      -0.94789045      -2.98335796       0.32135824        6 
C      -1.47678402      -1.69830461       0.37180498        6 
H      -3.21571408       2.49080412       0.69534143        1 
H       3.80918852       1.83998228       0.01082480        1 
H      -1.58537891      -3.83827892       0.51512444        1 
H      -2.71701947       2.71359219      -0.99816857        1 
H      -4.22533997       1.82125475      -0.62609295        1 
H       3.24431872       2.25427256       1.66166632        1 
H       2.35565245       2.85193797       0.22633321        1 
H       0.80958392      -4.16750511      -0.06152540        1 
H      -2.52753305      -1.54785850       0.58227016        1 
H       2.25312919      -2.20718907      -0.50842063        1 
