24
Lattice="0.0 0.0 0.0 0.0 0.0 0.0 0.0 0.0 0.0" Properties=species:S:1:pos:R:3:Z:I:1 pbc="F F F"
C       0.27875473      -0.85112243       0.01853191        6 
C      -1.03787071      -0.36202230       0.06703486        6 
C       1.42892018       0.07853595       0.21600114        6 
C      -1.36719259       1.09675212       0.20195566        6 
O       2.58598886      -0.44227586      -0.24316360        8 
O       1.35491701       1.16038483       0.75047422        8 
O      -0.93218242       1.79219093      -0.86246915        8 
O      -2.00291965       1.56410485       1.11342036        8 
C      -1.09371455       3.22053648      -0.78563000        6 
C       3.76105778       0.36393930      -0.04255342        6 
C       0.49379856      -2.22569191      -0.13668760        6 
C      -0.58008227      -3.10570052      -0.22918294        6 
C      -1.88391329      -2.61926582      -0.16103770        6 
C      -2.10863090      -1.25352680      -0.00773175        6 
H      -2.14413294       3.48214932      -0.65147399        1 
H       3.66307641       1.31523395      -0.56747847        1 
H      -2.72514766      -3.30014970      -0.22453660        1 
H      -0.50905457       3.61147456       0.04848291        1 
H      -0.71878021       3.60511968      -1.73142141        1 
H       4.58317915      -0.21764412      -0.45347195        1 
H       3.91596687       0.55435256       1.02050087        1 
H      -0.39940518      -4.16804253      -0.34563117        1 
H      -3.11964974      -0.86805242       0.04916995        1 
H       1.50904948      -2.59765630      -0.16755096        1 
