24
Lattice="0.0 0.0 0.0 0.0 0.0 0.0 0.0 0.0 0.0" Properties=species:S:1:pos:R:3:Z:I:1 pbc="F F F"
C       0.78489655      -0.69175361      -0.00984747        6 
C       0.79871834       0.71085427       0.02440726        6 
C      -0.43986572      -1.51674460      -0.28779749        6 
C      -0.40686690       1.56151164      -0.25677061        6 
O      -1.35591366      -1.43077656       0.68859230        8 
O      -0.56048755      -2.21763949      -1.26458196        8 
O      -1.37420887       1.41499085       0.66124423        8 
O      -0.48281556       2.31031649      -1.20188858        8 
C      -2.58363952       2.16437091       0.43122050        6 
C      -2.56705645      -2.18591638       0.48886776        6 
C       1.98658600      -1.39486689       0.11725541        6 
C       3.18475751      -0.72212769       0.32566494        6 
C       3.19883445       0.67106296       0.36143911        6 
C       2.01579832       1.37965623       0.18492060        6 
H      -2.37859346       3.23570119       0.45061881        1 
H      -3.07055771      -1.86246026      -0.42345328        1 
H       4.13067704       1.20502904       0.50619345        1 
H      -3.01581972       1.89970985      -0.53492867        1 
H      -3.25175048       1.88640638       1.24307403        1 
H      -3.18099712      -1.97868814       1.36233360        1 
H      -2.34602336      -3.25180141       0.41701432        1 
H       4.10469646      -1.28303337       0.44261446        1 
H       2.02550162       2.46271179       0.16122343        1 
H       1.97123548      -2.47593694       0.04521743        1 
