24
Lattice="0.0 0.0 0.0 0.0 0.0 0.0 0.0 0.0 0.0" Properties=species:S:1:pos:R:3:Z:I:1 pbc="F F F"
C       0.46410088      -0.75740696       0.02700675        6 
C      -0.92367169      -0.57260985      -0.10771377        6 
C       1.39240792       0.39266039      -0.17956839        6 
C      -1.57388390       0.77558182      -0.22973507        6 
O       2.66038018       0.09458540       0.17524087        8 
O       1.06943434       1.46761018      -0.62878837        8 
O      -1.33062131       1.52799904       0.85613303        8 
O      -2.30393982       1.09527275      -1.13502167        8 
C      -1.82407416       2.87880139       0.80700636        6 
C       3.63055786       1.13591068      -0.03602618        6 
C       0.96534251      -2.05096297       0.21682618        6 
C       0.10716119      -3.14526902       0.26898260        6 
C      -1.26419285      -2.96046245       0.10883499        6 
C      -1.77393069      -1.67848770      -0.08211747        6 
H      -1.34143984       3.41573670      -0.01108403        1 
H       3.68021874       1.40110347      -1.09321526        1 
H      -1.93710641      -3.81012841       0.13235058        1 
H      -2.90577423       2.88939249       0.66567571        1 
H      -1.55680809       3.31895555       1.76500804        1 
H       4.57757160       0.72066923       0.30115196        1 
H       3.36964604       2.02197932       0.54432929        1 
H       0.51016725      -4.14030411       0.41793813        1 
H      -2.83951183      -1.52467635      -0.20406486        1 
H       2.03410097      -2.19102705       0.30502362        1 
