24
Lattice="0.0 0.0 0.0 0.0 0.0 0.0 0.0 0.0 0.0" Properties=species:S:1:pos:R:3:Z:I:1 pbc="F F F"
C       0.79247402      -0.68200627       0.11955133        6 
C       0.83639501       0.70937563      -0.07122916        6 
C      -0.48448465      -1.46324549       0.19240136        6 
C      -0.38226024       1.57454224      -0.08917238        6 
O      -1.26725230      -1.21950495      -0.87749210        8 
O      -0.75556743      -2.25414725       1.06183608        8 
O      -1.34176620       1.10351846       0.73219692        8 
O      -0.48425911       2.59977784      -0.71989288        8 
C      -2.58556851       1.82583040       0.74020605        6 
C      -2.54462098      -1.88244322      -0.88978469        6 
C       1.98270381      -1.40367712       0.21718099        6 
C       3.21030552      -0.76025023       0.08923140        6 
C       3.25474973       0.61478772      -0.13387107        6 
C       2.07255130       1.34437907      -0.21036489        6 
H      -2.43113230       2.84888819       1.08570683        1 
H      -2.41479318      -2.96567783      -0.90339587        1 
H       4.20773610       1.11975074      -0.23963187        1 
H      -3.01794084       1.84590055      -0.26166421        1 
H      -3.22931281       1.28241917       1.42819124        1 
H      -3.03640616      -1.54470257      -1.79916184        1 
H      -3.12582444      -1.60311222      -0.00913498        1 
H       4.12787841      -1.33288893       0.15901056        1 
H       2.08944324       2.41562437      -0.36852323        1 
H       1.93441104      -2.47347045       0.38161234        1 
