24
Lattice="0.0 0.0 0.0 0.0 0.0 0.0 0.0 0.0 0.0" Properties=species:S:1:pos:R:3:Z:I:1 pbc="F F F"
C       0.34690492      -0.97743807      -0.14801523        6 
C      -0.82165693      -0.29682156       0.22305932        6 
C       1.64801545      -0.27356779      -0.41061410        6 
C      -0.87248729       1.20174052       0.26328923        6 
O       2.20709624       0.15397128       0.72695123        8 
O       2.14898327      -0.16395568      -1.50459923        8 
O      -1.85180326       1.65645413      -0.54744166        8 
O      -0.18570272       1.91920529       0.94756394        8 
C      -2.04479449       3.08435337      -0.56339062        6 
C       3.44029802       0.88702991       0.59522809        6 
C       0.32025709      -2.36611446      -0.29435503        6 
C      -0.84656490      -3.08127212      -0.04161561        6 
C      -2.00687352      -2.40765443       0.33549625        6 
C      -1.99945089      -1.02029554       0.43717549        6 
H      -2.29177378       3.44689817       0.43566174        1 
H       4.19961427       0.27277697       0.10899404        1 
H      -2.92024681      -2.95850303       0.52869756        1 
H      -1.14156728       3.58484619      -0.91491988        1 
H      -2.86982542       3.25490856      -1.25101764        1 
H       3.73460561       1.13638626       1.61156156        1 
H       3.27622332       1.79349554       0.01090188        1 
H      -0.85124369      -4.16017529      -0.14608897        1 
H      -2.91072362      -0.48811589       0.68082146        1 
H       1.22021073      -2.88265777      -0.60645524        1 
