24
Lattice="0.0 0.0 0.0 0.0 0.0 0.0 0.0 0.0 0.0" Properties=species:S:1:pos:R:3:Z:I:1 pbc="F F F"
C       0.92368838      -0.67489044       0.03641865        6 
C       0.64798332       0.70142351       0.10588785        6 
C      -0.12215074      -1.74241531      -0.02646199        6 
C      -0.72487611       1.26196260       0.36068490        6 
O      -1.37205173      -1.25147702       0.04988678        8 
O       0.11865368      -2.91895169      -0.17337266        8 
O      -1.27870584       1.72975625      -0.77286534        8 
O      -1.23571646       1.33741840       1.44880157        8 
C      -2.60201792       2.28466975      -0.64226318        6 
C      -2.44523136      -2.20731392      -0.01049706        6 
C       2.25144317      -1.10269455      -0.07748695        6 
C       3.29488515      -0.18727179      -0.11695404        6 
C       3.01719100       1.17750225      -0.06209498        6 
C       1.70081429       1.61596503       0.04865205        6 
H      -3.28932365       1.52930023      -0.25810864        1 
H      -2.44093430      -2.72278370      -0.97206483        1 
H       3.82298483       1.90143577      -0.10191359        1 
H      -2.59402206       3.14063956       0.03411315        1 
H      -2.88790713       2.58997662      -1.64619218        1 
H      -3.35564438      -1.62458402       0.11060708        1 
H      -2.34831509      -2.93862064       0.79272504        1 
H       4.31764368      -0.53554603      -0.19972074        1 
H       1.48517908       2.67666810       0.10218238        1 
H       2.43755409      -2.16712317      -0.14529486        1 
