24
Lattice="0.0 0.0 0.0 0.0 0.0 0.0 0.0 0.0 0.0" Properties=species:S:1:pos:R:3:Z:I:1 pbc="F F F"
C       0.86380263      -0.69106595      -0.12279861        6 
C       0.73180781       0.68142383       0.12817222        6 
C      -0.26241859      -1.65133752       0.11538389        6 
C      -0.60423572       1.31983197       0.38829433        6 
O      -1.37833902      -1.31804293      -0.56077475        8 
O      -0.19609035      -2.58117790       0.88204792        8 
O      -1.22918304       1.61725983      -0.76219037        8 
O      -1.03005909       1.59645428       1.48310957        8 
C      -2.53798065       2.20504135      -0.63800696        6 
C      -2.54389728      -2.12294854      -0.29343878        6 
C       2.13092599      -1.22673391      -0.36988787        6 
C       3.24744068      -0.40101619      -0.42751238        6 
C       3.11322628       0.96436004      -0.17939616        6 
C       1.86065888       1.50115197       0.10351929        6 
H      -3.21259282       1.51566733      -0.12713637        1 
H      -2.36213005      -3.16163411      -0.57263966        1 
H       3.98272533       1.61078550      -0.20125806        1 
H      -2.48831617       3.14027401      -0.07881564        1 
H      -2.87197266       2.38204926      -1.65765743        1 
H      -3.33490616      -1.69530426      -0.90543497        1 
H      -2.80306230      -2.07397782       0.76517629        1 
H       4.22157859      -0.82434471      -0.64230547        1 
H       1.75255549       2.56019156       0.30660154        1 
H       2.23012863      -2.29714332      -0.50542241        1 
