24
Lattice="0.0 0.0 0.0 0.0 0.0 0.0 0.0 0.0 0.0" Properties=species:S:1:pos:R:3:Z:I:1 pbc="F F F"
C       0.49943607      -0.74218832       0.01930271        6 
C      -0.89512438      -0.61008516      -0.10020553        6 
C       1.37675161       0.44963947      -0.16833947        6 
C      -1.59051561       0.71424822      -0.24168403        6 
O       2.65908441       0.19812752       0.16911144        8 
O       1.00378277       1.51971446      -0.59028786        8 
O      -1.43760344       1.45850767       0.86587411        8 
O      -2.27317110       1.02228430      -1.18661682        8 
C      -1.98169753       2.78985579       0.80651492        6 
C       3.58203998       1.28529817      -0.02326034        6 
C       1.05212767      -2.01572848       0.20260497        6 
C       0.23683810      -3.14159436       0.26229101        6 
C      -1.14272600      -3.00843052       0.12029139        6 
C      -1.70304072      -1.74689906      -0.06413273        6 
H      -1.47830717       3.35707546       0.02216981        1 
H       3.61109737       1.57830156      -1.07385939        1 
H      -1.78265692      -3.88292048       0.15241848        1 
H      -3.05381303       2.75925269       0.60684225        1 
H      -1.78437430       3.22623046       1.78298860        1 
H       4.54867169       0.90282746       0.29649611        1 
H       3.28819836       2.14465915       0.58096354        1 
H       0.67876377      -4.12089277       0.40500642        1 
H      -2.77508715      -1.63495778      -0.17527996        1 
H       2.12612289      -2.11469469       0.28298827        1 
