24
Lattice="0.0 0.0 0.0 0.0 0.0 0.0 0.0 0.0 0.0" Properties=species:S:1:pos:R:3:Z:I:1 pbc="F F F"
C       0.98843283      -0.57866833      -0.06031595        6 
C       0.50645394       0.74321990      -0.05225470        6 
C       0.11955219      -1.79648203       0.00782251        6 
C      -0.92051755       1.09113407      -0.36482780        6 
O      -1.16184882      -1.50385076       0.28931624        8 
O       0.53523473      -2.92868638      -0.08697167        8 
O      -1.45937179       1.86506041       0.59790978        8 
O      -1.49434494       0.77458621      -1.37614415        8 
C      -2.81552085       2.29430689       0.36940479        6 
C      -2.07255891      -2.61434468       0.36133595        6 
C       2.36517848      -0.80526443       0.02650013        6 
C       3.25935523       0.25537831       0.11809286        6 
C       2.77849602       1.56185539       0.15339361        6 
C       1.40892365       1.80142027       0.06985964        6 
H      -2.87964498       2.89268849      -0.54074778        1 
H      -2.08242168      -3.15761328      -0.58430571        1 
H       3.46569310       2.39556757       0.24000014        1 
H      -3.47493767       1.43008988       0.27719254        1 
H      -3.08132429       2.88868574       1.24058046        1 
H      -3.04725094      -2.17420160       0.55943158        1 
H      -1.78469869      -3.29274624       1.16600964        1 
H       4.32382762       0.06141665       0.17742701        1 
H       1.03200254       2.81689315       0.08037606        1 
H       2.71215879      -1.83090706       0.03862818        1 
