24
Lattice="0.0 0.0 0.0 0.0 0.0 0.0 0.0 0.0 0.0" Properties=species:S:1:pos:R:3:Z:I:1 pbc="F F F"
C       0.76195758      -0.67448588      -0.19331410        6 
C       0.73034265       0.68334512       0.19922169        6 
C      -0.38327872      -1.64196343      -0.06176481        6 
C      -0.47848719       1.57370811       0.16021194        6 
O      -1.49838140      -1.09385216       0.44960179        8 
O      -0.26943351      -2.83381263      -0.24379044        8 
O      -1.32823071       1.22482180      -0.82094554        8 
O      -0.58982312       2.59206459       0.80380411        8 
C      -2.50512549       2.03783091      -0.95754684        6 
C      -2.58678763      -1.99765167       0.70889781        6 
C       2.00122093      -1.28225053      -0.41883527        6 
C       3.19130610      -0.57947118      -0.26348000        6 
C       3.15897685       0.73963378       0.17879030        6 
C       1.93420550       1.36412803       0.39740996        6 
H      -3.10178166       1.99478939      -0.04448807        1 
H      -2.90234512      -2.48919382      -0.21246108        1 
H       4.08005668       1.28887185       0.33596848        1 
H      -2.23609528       3.07518596      -1.16191811        1 
H      -3.05472478       1.61102398      -1.79359686        1 
H      -3.38653051      -1.37634524       1.10618428        1 
H      -2.29076252      -2.75504205       1.43641691        1 
H       4.13738443      -1.07216262      -0.45546962        1 
H       1.88813859       2.40436710       0.69401395        1 
H       2.00951003      -2.33367084      -0.67659842        1 
