24
Lattice="0.0 0.0 0.0 0.0 0.0 0.0 0.0 0.0 0.0" Properties=species:S:1:pos:R:3:Z:I:1 pbc="F F F"
C       0.46551805      -0.64655655       0.14375091        6 
C      -0.90401974      -0.50181791      -0.20162485        6 
C       1.48187267       0.42855980      -0.13821199        6 
C      -1.71746210       0.76913768      -0.16067439        6 
O       2.74396733      -0.02060145       0.08371529        8 
O       1.26052674       1.55336993      -0.50845375        8 
O      -1.14279700       1.73606179       0.55953188        8 
O      -2.86089866       0.83350764      -0.55804294        8 
C      -1.90446809       2.94332626       0.72302794        6 
C       3.79454715       0.92570156      -0.17187382        6 
C       0.94725679      -1.93190641       0.42872570        6 
C       0.12452290      -3.05364046       0.37488977        6 
C      -1.19809836      -2.91649929      -0.02879158        6 
C      -1.70225204      -1.64715299      -0.29421899        6 
H      -2.11703831       3.39099168      -0.24878716        1 
H       3.77825771       1.24221948      -1.21595710        1 
H      -1.84403832      -3.78317907      -0.11067245        1 
H      -2.84440199       2.73684511       1.23800536        1 
H      -1.27320074       3.60046282       1.31647980        1 
H       4.71880655       0.39830876       0.05447726        1 
H       3.68516505       1.80221566       0.46882311        1 
H       0.52923804      -4.03017941       0.61500835        1 
H      -2.74720306      -1.51112678      -0.54148148        1 
H       1.99557914      -2.05036576       0.66095861        1 
