24
Lattice="0.0 0.0 0.0 0.0 0.0 0.0 0.0 0.0 0.0" Properties=species:S:1:pos:R:3:Z:I:1 pbc="F F F"
C      -0.48131882      -0.88044985      -0.17457581        6 
C      -0.82112073       0.41415976       0.23473823        6 
C       0.94407544      -1.28034329      -0.43346515        6 
C       0.22907788       1.47956581       0.34265373        6 
O       1.56815006      -1.60388733       0.70698138        8 
O       1.44437881      -1.34967960      -1.53024846        8 
O       0.04133165       2.42558960      -0.59743095        8 
O       1.10209603       1.52007502       1.17434100        8 
C       0.98022745       3.51979942      -0.58886040        6 
C       2.95222209      -1.98959784       0.58891394        6 
C      -1.48304433      -1.83727490      -0.34739030        6 
C      -2.81409173      -1.51490420      -0.09863256        6 
C      -3.15330355      -0.22641591       0.31023986        6 
C      -2.16191407       0.73986016       0.45375708        6 
H       0.94678736       4.04314076       0.36775601        1 
H       3.04943977      -2.86431272      -0.05575104        1 
H      -4.18874427       0.03001102       0.50209472        1 
H       1.99141673       3.14998087      -0.76358661        1 
H       0.66592356       4.17384280      -1.39868499        1 
H       3.27308235      -2.21720915       1.60238482        1 
H       3.53758098      -1.16695191       0.17643729        1 
H      -3.58396452      -2.26702337      -0.22736753        1 
H      -2.42454340       1.75207961       0.73732918        1 
H      -1.21603278      -2.83536253      -0.67513487        1 
