24
Lattice="0.0 0.0 0.0 0.0 0.0 0.0 0.0 0.0 0.0" Properties=species:S:1:pos:R:3:Z:I:1 pbc="F F F"
C       0.70386273       0.72483514      -0.12593957        6 
C      -0.68557145       0.62733414       0.04835874        6 
C       1.53824639      -0.49550729      -0.40047695        6 
C      -1.32003143      -0.71980668       0.15166872        6 
O       2.36012269      -0.77089453       0.62403106        8 
O       1.50384246      -1.11174309      -1.43616906        8 
O      -2.62568293      -0.69483034      -0.18363180        8 
O      -0.74663138      -1.71833444       0.52060618        8 
C      -3.32705737      -1.94838543      -0.07686396        6 
C       3.15520777      -1.96602889       0.48045447        6 
C       1.31037746       1.97920261      -0.14272979        6 
C       0.54234170       3.13340667      -0.00073177        6 
C      -0.83837511       3.03955225       0.16069034        6 
C      -1.45003388       1.78995234       0.18102887        6 
H      -2.87508900      -2.69227603      -0.73423494        1 
H       2.50267278      -2.83079017       0.35367692        1 
H      -1.43726827       3.93592847       0.27178048        1 
H      -3.30177309      -2.31367051       0.95103838        1 
H      -4.34807229      -1.73389415      -0.38413891        1 
H       3.72553433      -2.04460048       1.40300473        1 
H       3.81999296      -1.88230652      -0.38046514        1 
H       1.02362199       4.10444920      -0.01869235        1 
H      -2.52078047       1.70252473       0.31074988        1 
H       2.38279740       2.05123175      -0.27941907        1 
