24
Lattice="0.0 0.0 0.0 0.0 0.0 0.0 0.0 0.0 0.0" Properties=species:S:1:pos:R:3:Z:I:1 pbc="F F F"
C       0.69501409      -0.75204824      -0.15755675        6 
C      -0.67278686      -0.60102406       0.11485411        6 
C       1.58717605       0.43213270      -0.41083663        6 
C      -1.27564584       0.76340095       0.11984990        6 
O       2.19130249       0.82981895       0.71696610        8 
O       1.78577941       0.90498671      -1.50247078        8 
O      -2.58117588       0.73613346      -0.21744208        8 
O      -0.68684860       1.77627492       0.41926464        8 
C      -3.26153704       2.00500519      -0.21021728        6 
C       3.01086646       2.01002794       0.60626847        6 
C       1.25017345      -2.03016144      -0.21431869        6 
C       0.45571016      -3.15386127       0.00137624        6 
C      -0.90385239      -3.00741224       0.27146519        6 
C      -1.46754719      -1.73679722       0.31065107        6 
H      -3.23796356       2.44526541       0.78785722        1 
H       3.80509458       1.85834696      -0.12600719        1 
H      -1.52452246      -3.88007071       0.43894973        1 
H      -2.79258556       2.69013390      -0.91758930        1 
H      -4.28371844       1.78468815      -0.50946842        1 
H       3.42510578       2.16687750       1.59936242        1 
H       2.39375635       2.85849955       0.30779747        1 
H       0.89892703      -4.14225712      -0.04284080        1 
H      -2.52652198      -1.61260259       0.49527316        1 
H       2.30577305      -2.14462765      -0.43107747        1 
