24
Lattice="0.0 0.0 0.0 0.0 0.0 0.0 0.0 0.0 0.0" Properties=species:S:1:pos:R:3:Z:I:1 pbc="F F F"
C      -0.14958767      -0.85269294      -0.01273322        6 
C      -1.10389572       0.17874636       0.07869437        6 
C       1.29581753      -0.59425356       0.27115934        6 
C      -0.76020084       1.63657245       0.11526276        6 
O       2.09203248      -1.50819253      -0.32405314        8 
O       1.71353125       0.29258733       0.97602606        8 
O       0.23145005       1.93261944      -0.74158741        8 
O      -1.37281732       2.45954000       0.75289370        8 
C       0.69214853       3.29491249      -0.72797256        6 
C       3.49887501      -1.39066407      -0.04592127        6 
C      -0.58467357      -2.17130624      -0.18230560        6 
C      -1.94312887      -2.47165264      -0.24731906        6 
C      -2.88484185      -1.45333350      -0.12795555        6 
C      -2.46317168      -0.13554128       0.03225037        6 
H      -0.12541465       3.97907781      -0.95897505        1 
H       3.87156236      -0.41949467      -0.37440459        1 
H      -3.94412237      -1.68047896      -0.16530017        1 
H       1.10517506       3.53729135       0.25241839        1 
H       1.46504743       3.34582755      -1.49147463        1 
H       3.97202494      -2.19357877      -0.60677553        1 
H       3.68687004      -1.50408573       1.02301992        1 
H      -2.26246328      -3.49951100      -0.37590643        1 
H      -3.18406171       0.66918571       0.10867103        1 
H       0.15065468      -2.96293544      -0.23790069        1 
