24
Lattice="0.0 0.0 0.0 0.0 0.0 0.0 0.0 0.0 0.0" Properties=species:S:1:pos:R:3:Z:I:1 pbc="F F F"
C       0.77266399       0.74299114       0.17017366        6 
C      -0.59582089       0.61006416      -0.13310619        6 
C       1.70798687      -0.42335500       0.32686360        6 
C      -1.28087282      -0.71113594       0.03437824        6 
O       1.79461350      -1.12462624      -0.81239180        8 
O       2.38734486      -0.61979963       1.30562464        8 
O      -2.62384709      -0.56856022       0.10794539        8 
O      -0.73876481      -1.78992072       0.08428082        8 
C      -3.37747249      -1.78610666       0.25174557        6 
C       2.56504783      -2.33842135      -0.75242342        6 
C       1.34600994       2.01264241       0.23335331        6 
C       0.58558173       3.14769650      -0.03562437        6 
C      -0.76207207       3.02007660      -0.36378727        6 
C      -1.35248899       1.76116894      -0.38435750        6 
H      -3.22276641      -2.43429651      -0.61228279        1 
H       3.58736960      -2.13352494      -0.43239479        1 
H      -1.35877383       3.89926704      -0.57718648        1 
H      -3.07677242      -2.31611018       1.15647251        1 
H      -4.41758814      -1.47442695       0.31693742        1 
H       2.54951921      -2.73972816      -1.76319127        1 
H       2.09353761      -3.03575941      -0.05816838        1 
H       1.04699993       4.12747008       0.00931203        1 
H      -2.41088233       1.65864477      -0.58045999        1 
H       2.39656963       2.10140959       0.48232600        1 
