24
Lattice="0.0 0.0 0.0 0.0 0.0 0.0 0.0 0.0 0.0" Properties=species:S:1:pos:R:3:Z:I:1 pbc="F F F"
C       0.70610809       0.62705487       0.05716250        6 
C      -0.68393117       0.70761401      -0.11808667        6 
C       1.34759893      -0.71595145       0.16038357        6 
C      -1.51692965      -0.51525217      -0.38786707        6 
O       2.65039480      -0.69061191      -0.18319317        8 
O       0.77622001      -1.71470151       0.53227982        8 
O      -2.35097316      -0.77373897       0.63239549        8 
O      -1.48751383      -1.13520957      -1.42134748        8 
C      -3.18557356      -1.93963184       0.47846632        6 
C       3.34363577      -1.95028207      -0.09586774        6 
C       1.45429716       1.80024953       0.18807504        6 
C       0.82508576       3.04156599       0.16591279        6 
C      -0.55680045       3.11789176       0.00384474        6 
C      -1.30817606       1.95345044      -0.13680245        6 
H      -3.82620802      -1.83826016      -0.39883162        1 
H       3.33421254      -2.32085984       0.93038644        1 
H      -1.05143701       4.08225138      -0.01428216        1 
H      -2.56468439      -2.83032444       0.37443323        1 
H      -3.78092705      -1.98928801       1.38725981        1 
H       4.36035558      -1.74289812      -0.42135595        1 
H       2.87224823      -2.68664660      -0.74810082        1 
H       1.41162442       3.94600948       0.27658047        1 
H      -2.38192924       2.00971572      -0.27175105        1 
H       2.52578768       1.72790085       0.32024016        1 
