24
Lattice="0.0 0.0 0.0 0.0 0.0 0.0 0.0 0.0 0.0" Properties=species:S:1:pos:R:3:Z:I:1 pbc="F F F"
C       0.64076004      -0.66781683       0.06068522        6 
C      -0.76266248      -0.71368394       0.06143848        6 
C       1.32957708       0.65182772       0.13342125        6 
C      -1.61875848       0.50421150       0.28385885        6 
O       2.63956031       0.56313288      -0.17780517        8 
O       0.79470636       1.68910034       0.45118981        8 
O      -1.86521006       1.14426798      -0.87103549        8 
O      -2.06780103       0.82042927       1.35537803        8 
C      -2.61831895       2.36813978      -0.75802662        6 
C       3.38720539       1.79023140      -0.09966161        6 
C       1.36589180      -1.86010429      -0.06141312        6 
C       0.70941214      -3.08145177      -0.16579506        6 
C      -0.68383748      -3.12256757      -0.16544301        6 
C      -1.41371972      -1.94306196      -0.04784675        6 
H      -3.59818869       2.17620247      -0.31829220        1 
H       2.98118205       2.52776417      -0.79347972        1 
H      -1.20270312      -4.07058957      -0.25198632        1 
H      -2.07302760       3.08051538      -0.13766915        1 
H      -2.71930495       2.73957256      -1.77520980        1 
H       4.40556043       1.52491935      -0.37440513        1 
H       3.35305166       2.19343290       0.91357718        1 
H       1.28227960      -3.99747663      -0.25126618        1 
H      -2.49706377      -1.97389440      -0.03336902        1 
H       2.44644128      -1.81741533      -0.07216928        1 
