24
Lattice="0.0 0.0 0.0 0.0 0.0 0.0 0.0 0.0 0.0" Properties=species:S:1:pos:R:3:Z:I:1 pbc="F F F"
C      -0.60409732      -0.68247932      -0.12931611        6 
C      -0.95679821       0.65769997       0.07969615        6 
C       0.82025710      -1.07932826      -0.37761701        6 
C       0.05482734       1.75262055      -0.04199401        6 
O       1.26131992      -1.91783408       0.57749702        8 
O       1.46602428      -0.75520136      -1.34442129        8 
O       1.13876290       1.50563057       0.71971056        8 
O      -0.06245700       2.71132089      -0.76390639        8 
C       2.25586323       2.39622734       0.53300410        6 
C       2.60363630      -2.41444791       0.40802394        6 
C      -1.59078431      -1.67027176      -0.09518173        6 
C      -2.92366458      -1.32615069       0.11142512        6 
C      -3.27767890       0.00914564       0.29996040        6 
C      -2.29842376       0.99712651       0.27035538        6 
H       2.60085805       2.34624159      -0.50076362        1 
H       2.68138381      -2.99305616      -0.51386289        1 
H      -4.31442720       0.28009125       0.46247851        1 
H       1.97133834       3.42116114       0.77384229        1 
H       3.02535311       2.04034761       1.21413264        1 
H       2.78945026      -3.04361519       1.27526077        1 
H       3.31156694      -1.58544495       0.37304276        1 
H      -3.68344252      -2.09935278       0.12656365        1 
H      -2.56468308       2.03991878       0.39407492        1 
H      -1.31236496      -2.70736817      -0.23907313        1 
