24
Lattice="0.0 0.0 0.0 0.0 0.0 0.0 0.0 0.0 0.0" Properties=species:S:1:pos:R:3:Z:I:1 pbc="F F F"
C       0.74513403      -0.67782238       0.15667512        6 
C       0.82753710       0.70249526      -0.10510942        6 
C      -0.53877207      -1.45194789       0.22277576        6 
C      -0.33538442       1.64226192      -0.04395482        6 
O      -1.25046417      -1.30986582      -0.91124770        8 
O      -0.84394384      -2.19418733       1.12391081        8 
O      -1.43366745       1.07301587       0.48792445        8 
O      -0.27938843       2.81122622      -0.34984819        8 
C      -2.59313631       1.91358702       0.61621811        6 
C      -2.51126981      -2.00129312      -0.95378310        6 
C       1.91491608      -1.43037428       0.27038646        6 
C       3.16076033      -0.83606862       0.09072348        6 
C       3.24473561       0.52369309      -0.20095377        6 
C       2.08531807       1.28727386      -0.28157245        6 
H      -2.37111952       2.77684079       1.24486983        1 
H      -2.36704072      -3.07422400      -0.81875895        1 
H       4.21074667       0.99274655      -0.34626972        1 
H      -2.92289356       2.25740059      -0.36550820        1 
H      -3.35210438       1.28722772       1.07973488        1 
H      -2.92388854      -1.79000222      -1.93770382        1 
H      -3.17377723      -1.62751565      -0.17071402        1 
H       4.06010691      -1.43527739       0.17422734        1 
H       2.13202095       2.35354125      -0.46358616        1 
H       1.83547806      -2.48918017       0.48571780        1 
