24
Lattice="0.0 0.0 0.0 0.0 0.0 0.0 0.0 0.0 0.0" Properties=species:S:1:pos:R:3:Z:I:1 pbc="F F F"
C       0.69771008       0.55925076      -0.03815898        6 
C      -0.71003106       0.53538145       0.10017273        6 
C       1.54433146      -0.64727683       0.25105209        6 
C      -1.49166225      -0.72557427      -0.13469589        6 
O       2.72385217      -0.59397596      -0.40987979        8 
O       1.23885641      -1.54644024       0.99051872        8 
O      -2.80470988      -0.55825083       0.15614718        8 
O      -1.04012472      -1.76878619      -0.53320730        8 
C      -3.64247964      -1.70690986      -0.06073794        6 
C       3.61478619      -1.69951651      -0.17378537        6 
C       1.34963882       1.78993840      -0.14499051        6 
C       0.63922324       2.98856694      -0.10330659        6 
C      -0.73915926       2.96728617       0.07304681        6 
C      -1.40618111       1.74666422       0.14990878        6 
H      -3.62096235      -2.00337982      -1.11079276        1 
H       3.89109201      -1.75006477       0.88071341        1 
H      -1.30148151       3.89242083       0.12419349        1 
H      -3.30827085      -2.54360667       0.55432145        1 
H      -4.64318085      -1.39279246       0.22838233        1 
H       4.48859130      -1.50392003      -0.79142863        1 
H       3.13827252      -2.63681691      -0.46439720        1 
H       1.16760949       3.93103443      -0.18899571        1 
H      -2.48459548       1.72201541       0.22203240        1 
H       2.42778470       1.80014465      -0.23358113        1 
