24
Lattice="0.0 0.0 0.0 0.0 0.0 0.0 0.0 0.0 0.0" Properties=species:S:1:pos:R:3:Z:I:1 pbc="F F F"
C       0.72299050      -0.67956165       0.14730924        6 
C       0.85489314       0.70160920      -0.08063149        6 
C      -0.59345540      -1.39320739       0.27479818        6 
C      -0.27999882       1.67452001      -0.03693849        6 
O      -1.23200269      -1.44133227      -0.90875166        8 
O      -0.98304213      -1.93510209       1.27897594        8 
O      -1.44632345       1.09782669       0.30909165        8 
O      -0.16249216       2.86275301      -0.23031438        8 
C      -2.58504565       1.96918900       0.42157457        6 
C      -2.51805774      -2.08715884      -0.90329495        6 
C       1.86428728      -1.47936353       0.22335118        6 
C       3.12958131      -0.92753337       0.04645572        6 
C       3.26332919       0.43726430      -0.20180545        6 
C       2.13329076       1.24455286      -0.25096842        6 
H      -2.39733675       2.74536337       1.16433907        1 
H      -2.42467899      -3.12726679      -0.58769866        1 
H       4.24541144       0.87348589      -0.34099696        1 
H      -2.80354682       2.43494267      -0.54055528        1 
H      -3.40675944       1.32951128       0.73554404        1 
H      -2.87624960      -2.02752763      -1.92857550        1 
H      -3.19862102      -1.56693980      -0.22682659        1 
H       4.00595883      -1.56296767       0.10193382        1 
H       2.21699255       2.31231122      -0.40923628        1 
H       1.75168110      -2.54012673       0.41454216        1 
