24
Lattice="0.0 0.0 0.0 0.0 0.0 0.0 0.0 0.0 0.0" Properties=species:S:1:pos:R:3:Z:I:1 pbc="F F F"
C      -0.59251588      -0.71737802      -0.18971319        6 
C      -0.81389372       0.65682981      -0.03355577        6 
C       0.79488702      -1.25613279      -0.35722006        6 
C       0.28425686       1.65733658      -0.26307335        6 
O       1.06682809      -2.17439574       0.59495268        8 
O       1.55679746      -0.96924659      -1.24704816        8 
O       0.91198351       1.96762186       0.88841823        8 
O       0.57745034       2.10881744      -1.33852689        8 
C       2.01208300       2.89423857       0.77014624        6 
C       2.34938680      -2.82304990       0.49493384        6 
C      -1.66468561      -1.60715415      -0.07461014        6 
C      -2.95457463      -1.13436191       0.14349413        6 
C      -3.17422595       0.23311846       0.29786927        6 
C      -2.10708869       1.12316351       0.21127372        6 
H       2.77674304       2.48690534       0.10743329        1 
H       2.43241192      -3.35779774      -0.45255714        1 
H      -4.17449506       0.60746144       0.48275848        1 
H       1.66295656       3.84888768       0.37411386        1 
H       2.39764630       3.01415396       1.77981882        1 
H       2.38753618      -3.51546019       1.33283743        1 
H       3.15344988      -2.08934225       0.56526579        1 
H      -3.78203747      -1.83157709       0.20680235        1 
H      -2.27706881       2.18748712       0.32550305        1 
H      -1.48095962      -2.67138574      -0.15761892        1 
