24
Lattice="0.0 0.0 0.0 0.0 0.0 0.0 0.0 0.0 0.0" Properties=species:S:1:pos:R:3:Z:I:1 pbc="F F F"
C      -0.15884896      -0.79777939      -0.04971104        6 
C      -1.06545153       0.27263816       0.14544619        6 
C       1.30697404      -0.71706376       0.26939853        6 
C      -0.73674484       1.73740225       0.02274014        6 
O       2.01137162      -1.62759548      -0.44535411        8 
O       1.81275294       0.02251595       1.07381348        8 
O       0.54969999       1.97778582      -0.25147339        8 
O      -1.58324051       2.60462412       0.02316664        8 
C       0.91128774       3.35291916      -0.45930285        6 
C       3.41653169      -1.70348851      -0.15007900        6 
C      -0.67144512      -2.08567513      -0.25326992        6 
C      -2.04087225      -2.33708107      -0.23673137        6 
C      -2.92777263      -1.29382538       0.00342934        6 
C      -2.43725226      -0.00178194       0.16397122        6 
H       0.37411156       3.76456312      -1.31541348        1 
H       3.89892393      -0.74313780      -0.33760062        1 
H      -3.99591942      -1.47496790       0.03685691        1 
H       0.68138288       3.94396786       0.42823182        1 
H       1.98301255       3.34101380      -0.64359249        1 
H       3.81087243      -2.46751433      -0.81655977        1 
H       3.57291691      -1.98499406       0.89278598        1 
H      -2.40556399      -3.34602144      -0.39246530        1 
H      -3.11578974       0.83483219       0.26988551        1 
H       0.02341930      -2.90247701      -0.39252830        1 
