24
Lattice="0.0 0.0 0.0 0.0 0.0 0.0 0.0 0.0 0.0" Properties=species:S:1:pos:R:3:Z:I:1 pbc="F F F"
C       1.03083212       0.32316721       0.17949736        6 
C      -0.28508449       0.76717029      -0.09487445        6 
C       1.49200956      -1.10855019       0.13136993        6 
C      -1.48428515      -0.07979381       0.22462605        6 
O       0.67649717      -1.88447463      -0.59521747        8 
O       2.57148590      -1.47690479       0.53756070        8 
O      -2.62977698       0.49582078      -0.21571043        8 
O      -1.47045300      -1.14032059       0.79796019        8 
C      -3.84162994      -0.22432458       0.06695589        6 
C       1.04983974      -3.26622977      -0.71919694        6 
C       2.06993313       1.25460666       0.22130877        6 
C       1.83862913       2.60690758      -0.01635281        6 
C       0.55623790       3.03856557      -0.33625653        6 
C      -0.49618639       2.12663403      -0.35155166        6 
H      -3.82598043      -1.20235087      -0.41665780        1 
H       2.02493371      -3.36042787      -1.19972498        1 
H       0.36460349       4.08454376      -0.54604200        1 
H      -3.96582307      -0.35914258       1.14259136        1 
H      -4.64326201       0.38970924      -0.33795617        1 
H       0.27262071      -3.71897196      -1.33073259        1 
H       1.08344084      -3.73775445       0.26422172        1 
H       2.66152512       3.31092364       0.02656563        1 
H      -1.50569754       2.46946720      -0.53018283        1 
H       3.07082196       0.88749326       0.40992319        1 
