24
Lattice="0.0 0.0 0.0 0.0 0.0 0.0 0.0 0.0 0.0" Properties=species:S:1:pos:R:3:Z:I:1 pbc="F F F"
C      -0.47133015      -0.75867992      -0.08446797        6 
C      -1.02116545       0.52900114       0.01204439        6 
C       0.99394118      -0.94974176      -0.31322142        6 
C      -0.17731313       1.76168537      -0.09772819        6 
O       1.48428014      -1.95087749       0.44414932        8 
O       1.64998187      -0.33524497      -1.12008471        8 
O       0.82485820       1.74787120       0.79979234        8 
O      -0.37678468       2.65315832      -0.88463744        8 
C       1.79805267       2.80225191       0.67123650        6 
C       2.87243166      -2.27478708       0.23595024        6 
C      -1.30999459      -1.87373110       0.00187675        6 
C      -2.68467736      -1.71326162       0.15003141        6 
C      -3.23151994      -0.43362739       0.22564730        6 
C      -2.40177260       0.68184715       0.14879368        6 
H       2.27214539       2.74770629      -0.30978289        1 
H       3.03686841      -2.59834730      -0.79310613        1 
H      -4.30140418      -0.30368470       0.34162750        1 
H       1.32508754       3.77715864       0.79608685        1 
H       2.52388944       2.62247259       1.46083620        1 
H       3.08742847      -3.08144087       0.93292653        1 
H       3.49994200      -1.40732803       0.44423805        1 
H      -3.32641141      -2.58510109       0.20548693        1 
H      -2.81788521       1.68098525       0.19624174        1 
H      -0.87942868      -2.86524546      -0.05831253        1 
