24
Lattice="0.0 0.0 0.0 0.0 0.0 0.0 0.0 0.0 0.0" Properties=species:S:1:pos:R:3:Z:I:1 pbc="F F F"
C       1.09982232      -0.19641149       0.12201326        6 
C       0.15266182       0.83832615      -0.02742403        6 
C       0.77484752      -1.66114216       0.08016713        6 
C      -1.29598760       0.63150566       0.29615089        6 
O      -0.36813614      -1.91029693      -0.57874244        8 
O       1.52716598      -2.52797517       0.46229715        8 
O      -2.08241823       1.51405078      -0.36027271        8 
O      -1.72519839      -0.19154993       1.06637272        8 
C      -3.48942810       1.43623038      -0.06846723        6 
C      -0.77225370      -3.28763653      -0.65785081        6 
C       2.46057112       0.11345630       0.09939440        6 
C       2.89365230       1.42492628      -0.07720256        6 
C       1.96116226       2.44110840      -0.26095019        6 
C       0.59986350       2.14755484      -0.22586428        6 
H      -3.87564386       0.44712154      -0.31884607        1 
H      -0.00826844      -3.88422683      -1.15856083        1 
H       2.28740413       3.46320289      -0.41424137        1 
H      -3.67251032       1.63493519       0.98887621        1 
H      -3.95571415       2.19857237      -0.68866182        1 
H      -1.69605768      -3.28353006      -1.23194205        1 
H      -0.94686801      -3.68616826       0.34275643        1 
H       3.95464058       1.64558675      -0.08766512        1 
H      -0.13109496       2.93919087      -0.32265182        1 
H       3.17033654      -0.69852947       0.19663915        1 
