24
Lattice="0.0 0.0 0.0 0.0 0.0 0.0 0.0 0.0 0.0" Properties=species:S:1:pos:R:3:Z:I:1 pbc="F F F"
C       0.73048073       0.50175918      -0.13309499        6 
C      -0.67331593       0.52914930       0.05899978        6 
C       1.52027538      -0.76392026       0.05961924        6 
C      -1.56825054      -0.64680551      -0.22451268        6 
O       2.85568900      -0.52269333       0.02429886        8 
O       1.07066036      -1.86991831       0.21470157        8 
O      -2.71629674      -0.56850287       0.49288829        8 
O      -1.33473067      -1.53568134      -0.99938910        8 
C      -3.67244757      -1.61594794       0.25007572        6 
C       3.69621656      -1.67807348       0.18599741        6 
C       1.42280668       1.71580815      -0.19979228        6 
C       0.76216094       2.93748105      -0.09810904        6 
C      -0.60728715       2.96144968       0.13627155        6 
C      -1.31454943       1.76377481       0.20264772        6 
H      -3.99582231      -1.60482535      -0.79235080        1 
H       3.51247813      -2.15345755       1.15080459        1 
H      -1.13160201       3.90369495       0.24714773        1 
H      -3.23600438      -2.58914893       0.47886655        1 
H      -4.50839679      -1.40350213       0.91312301        1 
H       4.71593212      -1.30288730       0.13139936        1 
H       3.50729142      -2.40053467      -0.60942710        1 
H       1.32390918       3.86126755      -0.17272132        1 
H      -2.38778931       1.77604805       0.33697926        1 
H       2.49751180       1.69199426      -0.30860919        1 
