24
Lattice="0.0 0.0 0.0 0.0 0.0 0.0 0.0 0.0 0.0" Properties=species:S:1:pos:R:3:Z:I:1 pbc="F F F"
C       0.57670860      -0.66569631       0.08213674        6 
C      -0.81254551      -0.67150836      -0.14199504        6 
C       1.35419758       0.59523059      -0.10928723        6 
C      -1.64892856       0.56924453      -0.28005425        6 
O       2.68188432       0.40074125       0.04286856        8 
O       0.87537024       1.67451661      -0.36904027        8 
O      -1.62075323       1.29911405       0.84561244        8 
O      -2.35923635       0.80150263      -1.22781092        8 
C      -2.34673534       2.54098119       0.80383893        6 
C       3.51091109       1.56181732      -0.14155589        6 
C       1.23463483      -1.88250015       0.30312989        6 
C       0.52974062      -3.08198075       0.31902266        6 
C      -0.84119087      -3.08410854       0.07196015        6 
C      -1.50525859      -1.88266181      -0.16019332        6 
H      -1.91181807       3.19711654       0.04839233        1 
H       3.39404502       1.95576363      -1.15228567        1 
H      -1.39425650      -4.01646963       0.06055847        1 
H      -3.39818866       2.36367103       0.57325155        1 
H      -2.23674463       2.97321363       1.79574547        1 
H       4.52962040       1.21703561       0.02081407        1 
H       3.24649636       2.33707109       0.57900382        1 
H       1.05328127      -4.01316093       0.50225241        1 
H      -2.57213857      -1.87423613      -0.34886851        1 
H       2.30614688      -1.87970437       0.44752701        1 
