24
Lattice="0.0 0.0 0.0 0.0 0.0 0.0 0.0 0.0 0.0" Properties=species:S:1:pos:R:3:Z:I:1 pbc="F F F"
C       0.95390790      -0.63779574       0.06056797        6 
C       0.61262144       0.70504925      -0.14727384        6 
C      -0.06980770      -1.72258548      -0.09250872        6 
C      -0.81773311       1.08634873      -0.37705894        6 
O      -1.07438761      -1.57939325       0.79438530        8 
O      -0.02752230      -2.58199028      -0.93589783        8 
O      -1.23660737       1.98559977       0.53251995        8 
O      -1.49844442       0.68417269      -1.28978621        8 
C      -2.59746391       2.43896096       0.38725033        6 
C      -2.20247423      -2.45945365       0.61477739        6 
C       2.28799793      -0.99034547       0.26559931        6 
C       3.27351988      -0.00896360       0.30512490        6 
C       2.93143994       1.32946286       0.11624810        6 
C       1.60320344       1.68661136      -0.09810041        6 
H      -2.73029591       2.94804811      -0.56858581        1 
H      -2.64762470      -2.29460199      -0.36747324        1 
H       3.69775404       2.09554460       0.13861360        1 
H      -3.28487567       1.59386259       0.44339441        1 
H      -2.76220091       3.12426331       1.21537252        1 
H      -2.90174342      -2.19647696       1.40522802        1 
H      -1.89318816      -3.50142684       0.70528280        1 
H       4.30653709      -0.28865458       0.47564968        1 
H       1.33037507       2.72571419      -0.23592395        1 
H       2.54524983      -2.03542450       0.39085623        1 
