24
Lattice="0.0 0.0 0.0 0.0 0.0 0.0 0.0 0.0 0.0" Properties=species:S:1:pos:R:3:Z:I:1 pbc="F F F"
C       0.85700027      -0.67078909      -0.16062445        6 
C       0.69694603       0.69227103       0.14435143        6 
C      -0.23224253      -1.69258187      -0.04661260        6 
C      -0.63254493       1.37126098       0.32141699        6 
O      -1.46833433      -1.16162465      -0.06698598        8 
O      -0.02521588      -2.87266633       0.12050328        8 
O      -1.26751579       1.50358596      -0.85515724        8 
O      -1.02309372       1.84563396       1.36009709        8 
C      -2.56181963       2.12991856      -0.80510689        6 
C      -2.55759325      -2.07582058       0.15677315        6 
C       2.14510014      -1.17288450      -0.38205645        6 
C       3.25485915      -0.33947904      -0.33392516        6 
C       3.09385972       1.00665055      -0.01033432        6 
C       1.82146955       1.51507206       0.23274801        6 
H      -3.23751842       1.54838593      -0.17523605        1 
H      -2.57795950      -2.84141889      -0.61991807        1 
H       3.95576879       1.66052191       0.05469327        1 
H      -2.48448288       3.14307440      -0.40809959        1 
H      -2.91527498       2.14543987      -1.83361829        1 
H      -3.45727503      -1.46586988       0.11772805        1 
H      -2.45844623      -2.55321316       1.13253369        1 
H       4.24249753      -0.74293554      -0.52375324        1 
H       1.68936276       2.56020682       0.48614348        1 
H       2.25480882      -2.23344920      -0.57054547        1 
