24
Lattice="0.0 0.0 0.0 0.0 0.0 0.0 0.0 0.0 0.0" Properties=species:S:1:pos:R:3:Z:I:1 pbc="F F F"
C       0.87895834      -0.73967441       0.06486224        6 
C       0.75145822       0.65566438       0.14279556        6 
C      -0.28828835      -1.65271063      -0.14616948        6 
C      -0.57192360       1.33879221       0.35897478        6 
O      -1.36226303      -1.29505112       0.57863683        8 
O      -0.28420592      -2.57558229      -0.92709645        8 
O      -1.12390386       1.70965120      -0.81341011        8 
O      -1.07668233       1.52780892       1.43486202        8 
C      -2.41704563       2.34290701      -0.72844327        6 
C      -2.56483891      -2.05639619       0.36067105        6 
C       2.15260311      -1.30927416      -0.03562284        6 
C       3.29052444      -0.51327751      -0.00879669        6 
C       3.16184757       0.87269275       0.06853086        6 
C       1.89839427       1.45185606       0.13995139        6 
H      -3.13760608       1.66552589      -0.26742839        1 
H      -2.86960699      -1.99425950      -0.68530009        1 
H       4.04328161       1.50331933       0.07282927        1 
H      -2.35584139       3.25866480      -0.13900175        1 
H      -2.69844078       2.56383373      -1.75539990        1 
H      -3.31100953      -1.60416456       1.00996225        1 
H      -2.40651296      -3.10212983       0.62753464        1 
H       4.27175144      -0.96952994      -0.06586747        1 
H       1.79690993       2.52910390       0.20143448        1 
H       2.23133044      -2.38366349      -0.14841414        1 
