24
Lattice="0.0 0.0 0.0 0.0 0.0 0.0 0.0 0.0 0.0" Properties=species:S:1:pos:R:3:Z:I:1 pbc="F F F"
C       0.68854587       0.63091297      -0.13130854        6 
C      -0.70990260       0.72553789      -0.03649844        6 
C       1.32954875      -0.71742472      -0.14693209        6 
C      -1.62034461      -0.44812086      -0.28836738        6 
O       2.61245044      -0.67311632       0.27363982        8 
O       0.79024902      -1.73737965      -0.50729678        8 
O      -2.05706214      -0.99063017       0.86240971        8 
O      -1.93733715      -0.82530481      -1.38576890        8 
C      -2.89845024      -2.15436682       0.72289497        6 
C       3.31246629      -1.93125160       0.27100740        6 
C       1.46182427       1.79494837      -0.05646194        6 
C       0.85617998       3.03929792       0.07931097        6 
C      -0.53039781       3.12789498       0.18819032        6 
C      -1.30788677       1.97475434       0.12831006        6 
H      -3.81204189      -1.90242752       0.18211479        1 
H       2.81588995      -2.64296451       0.93217223        1 
H      -1.00826800       4.09294155       0.31219279        1 
H      -2.36291797      -2.93810325       0.18577597        1 
H      -3.12771541      -2.46779748       1.73880637        1 
H       4.31290304      -1.70513827       0.63287235        1 
H       3.35035483      -2.34522832      -0.73767452        1 
H       1.46488923       3.93494827       0.11646771        1 
H      -2.38762508       2.04250922       0.19534280        1 
H       2.53924621       1.71100089      -0.10117243        1 
