24
Lattice="0.0 0.0 0.0 0.0 0.0 0.0 0.0 0.0 0.0" Properties=species:S:1:pos:R:3:Z:I:1 pbc="F F F"
C       0.74697485      -0.67586221       0.18676459        6 
C       0.77045869       0.69065524      -0.16721977        6 
C      -0.46512036      -1.55924675       0.13875804        6 
C      -0.40551833       1.61815777      -0.07434312        6 
O      -1.34083275      -1.16669771      -0.80462379        8 
O      -0.57071760      -2.59723930       0.75053138        8 
O      -1.42276178       1.09784659       0.63593405        8 
O      -0.39116286       2.76507524      -0.46005800        8 
C      -2.56734098       1.94722864       0.82282727        6 
C      -2.52042999      -1.97586000      -0.94703401        6 
C       1.95313462      -1.35652223       0.36786445        6 
C       3.17357457      -0.71522668       0.17598720        6 
C       3.19732416       0.61862406      -0.22126541        6 
C       2.00266813       1.31716499      -0.37045317        6 
H      -2.28231499       2.86842394       1.33268056        1 
H      -2.25422458      -3.00477748      -1.19322930        1 
H       4.14143879       1.12307612      -0.39081865        1 
H      -3.01791476       2.19431525      -0.14003085        1 
H      -3.25832584       1.36866887       1.43203288        1 
H      -3.08628743      -1.52063804      -1.75685303        1 
H      -3.09939305      -1.96659280      -0.02173195        1 
H       4.09823349      -1.26253939       0.31855686        1 
H       2.00289782       2.37175995      -0.61520614        1 
H       1.91319488      -2.40640275       0.63009879        1 
