24
Lattice="0.0 0.0 0.0 0.0 0.0 0.0 0.0 0.0 0.0" Properties=species:S:1:pos:R:3:Z:I:1 pbc="F F F"
C       0.73685482       0.75953440      -0.16748572        6 
C      -0.61287699       0.56125723       0.18394298        6 
C       1.74362461      -0.34267258      -0.34442292        6 
C      -1.26265607      -0.78730391       0.06223968        6 
O       1.84735250      -1.09120339       0.75906213        8 
O       2.46076396      -0.44931676      -1.31207364        8 
O      -2.56909759      -0.65766195      -0.27208013        8 
O      -0.74569894      -1.86164198       0.24828387        8 
C      -3.31237905      -1.88551139      -0.38135120        6 
C       2.72116254      -2.23121677       0.67831325        6 
C       1.23758748       2.05859436      -0.27356350        6 
C       0.43215143       3.15756431       0.00943631        6 
C      -0.89374407       2.96501953       0.38941063        6 
C      -1.41748367       1.67809926       0.44209112        6 
H      -2.88440660      -2.52212251      -1.15696119        1 
H       2.35609058      -2.92338994      -0.08193302        1 
H      -1.52779280       3.81440620       0.61557731        1 
H      -3.30433030      -2.42288570       0.56818549        1 
H      -4.32416338      -1.58635643      -0.64609785        1 
H       2.68080485      -2.69327605       1.66175731        1 
H       3.73868313      -1.92215508       0.43502983        1 
H       0.84067534       4.15866613      -0.06573249        1 
H      -2.46396731       1.52763977       0.66978663        1 
H       2.27092255       2.19530140      -0.56804327        1 
