24
Lattice="0.0 0.0 0.0 0.0 0.0 0.0 0.0 0.0 0.0" Properties=species:S:1:pos:R:3:Z:I:1 pbc="F F F"
C       0.59515529      -0.65907453       0.07631373        6 
C      -0.79479889      -0.69320412      -0.13552183        6 
C       1.33775538       0.62464416      -0.09434973        6 
C      -1.64872312       0.53379675      -0.29193370        6 
O       2.67141067       0.46281542       0.03978766        8 
O       0.82667259       1.69581051      -0.32585668        8 
O      -1.69750919       1.23662648       0.85019923        8 
O      -2.30295729       0.77908062      -1.27554715        8 
C      -2.43704886       2.47018188       0.79371997        6 
C       3.46735724       1.64928358      -0.12854483        6 
C       1.28142338      -1.86151724       0.28996321        6 
C       0.60235959      -3.07552747       0.30798256        6 
C      -0.77103777      -3.10550572       0.07550047        6 
C      -1.46262874      -1.91822866      -0.14860350        6 
H      -1.97262916       3.14510349       0.07327607        1 
H       3.32665433       2.06281457      -1.12832084        1 
H      -1.30451348      -4.04927392       0.06812234        1 
H      -3.47302304       2.28446912       0.50671732        1 
H      -2.38351055       2.88502637       1.79767509        1 
H       4.49679848       1.32789338       0.01266961        1 
H       3.19274874       2.40078755       0.61309846        1 
H       1.14672794      -3.99614843       0.48366000        1 
H      -2.53095974      -1.93371725      -0.32893920        1 
H       2.35338962      -1.83500979       0.42864987        1 
