24
Lattice="0.0 0.0 0.0 0.0 0.0 0.0 0.0 0.0 0.0" Properties=species:S:1:pos:R:3:Z:I:1 pbc="F F F"
C       0.70798862      -0.67635482      -0.16213309        6 
C       0.82095698       0.68754205       0.17085731        6 
C      -0.58108602      -1.44094777      -0.26561376        6 
C      -0.29070914       1.68617395       0.04353822        6 
O      -1.27047731      -1.39597131       0.88722102        8 
O      -0.88748329      -2.13198806      -1.20757474        8 
O      -1.50057325       1.12469414      -0.12756565        8 
O      -0.10936308       2.88167440      -0.00536698        8 
C      -2.59437156       2.02829811      -0.36712546        6 
C      -2.51913558      -2.10959739       0.90022709        6 
C       1.86163231      -1.45302471      -0.29236450        6 
C       3.11877097      -0.90740121      -0.05265720        6 
C       3.23287739       0.43229027       0.31204666        6 
C       2.09411477       1.22498119       0.39282893        6 
H      -2.71920077       2.70663348       0.47783055        1 
H      -3.19891068      -1.69566398       0.15297650        1 
H       4.20715749       0.86571585       0.50481755        1 
H      -2.41684018       2.60952097      -1.27306331        1 
H      -3.47049162       1.39425157      -0.48362833        1 
H      -2.92082445      -1.97125647       1.90141980        1 
H      -2.35979585      -3.16847070       0.69097713        1 
H       4.00245173      -1.52772331      -0.14841920        1 
H       2.17076621       2.28445496       0.60144426        1 
H       1.75798822      -2.49566516      -0.56762672        1 
