24
Lattice="0.0 0.0 0.0 0.0 0.0 0.0 0.0 0.0 0.0" Properties=species:S:1:pos:R:3:Z:I:1 pbc="F F F"
C       0.87021730      -0.71076765      -0.00590235        6 
C       0.80376297       0.68784007      -0.09028165        6 
C      -0.34890577      -1.56673345       0.12475837        6 
C      -0.50295094       1.40884248      -0.26031020        6 
O      -1.33468970      -1.16597561      -0.70146126        8 
O      -0.45328576      -2.48847556       0.89791005        8 
O      -1.21679935       1.39849010       0.88252281        8 
O      -0.87681612       1.91128355      -1.28896745        8 
C      -2.53441620       1.97608735       0.80568797        6 
C      -2.58975330      -1.86071550      -0.58266218        6 
C       2.11473991      -1.33897535       0.09147820        6 
C       3.28624454      -0.59209817       0.05740892        6 
C       3.21969451       0.79663970      -0.04781788        6 
C       1.98354991       1.43201378      -0.12504374        6 
H      -2.47598986       3.02634368       0.51710485        1 
H      -2.46465747      -2.91758249      -0.82199885        1 
H       4.12914863       1.38557782      -0.07096375        1 
H      -3.13897299       1.43586170       0.07495331        1 
H      -2.95365558       1.87422683       1.80397613        1 
H      -3.25178769      -1.38172554      -1.30047715        1 
H      -2.98090634      -1.76564060       0.43166517        1 
H       4.24663136      -1.09032665       0.11824938        1 
H       1.92759882       2.51051033      -0.21401944        1 
H       2.14688639      -2.41677229       0.19555320        1 
