24
Lattice="0.0 0.0 0.0 0.0 0.0 0.0 0.0 0.0 0.0" Properties=species:S:1:pos:R:3:Z:I:1 pbc="F F F"
C      -0.39382672      -0.77253651       0.02624944        6 
C      -1.03507335       0.48026508       0.05233993        6 
C       1.06541329      -0.92505705       0.32724552        6 
C      -0.31130421       1.79009089       0.04685936        6 
O       1.62945000      -1.87439708      -0.44851433        8 
O       1.65658978      -0.32952566       1.19399202        8 
O       0.86410567       1.71123122      -0.60014631        8 
O      -0.76957766       2.81829893       0.48707485        8 
C       1.67097703       2.90175544      -0.59630386        6 
C       3.01306899      -2.16516756      -0.17748500        6 
C      -1.16291512      -1.93156040      -0.11183310        6 
C      -2.55111027      -1.85977464      -0.20048861        6 
C      -3.18661226      -0.62197498      -0.14758579        6 
C      -2.42855139       0.53950116      -0.02737697        6 
H       1.12824367       3.73359247      -1.04715467        1 
H       3.62332851      -1.27243652      -0.32073618        1 
H      -4.26683495      -0.55827470      -0.20996562        1 
H       1.94956032       3.16002321       0.42648445        1 
H       2.55356754       2.65388458      -1.18140811        1 
H       3.29063107      -2.93871934      -0.88994664        1 
H       3.13401731      -2.52156450       0.84675669        1 
H      -3.13215606      -2.76940816      -0.30178260        1 
H      -2.90409114       1.51223752      -0.00819873        1 
H      -0.66665988      -2.89335339      -0.12856852        1 
