24
Lattice="0.0 0.0 0.0 0.0 0.0 0.0 0.0 0.0 0.0" Properties=species:S:1:pos:R:3:Z:I:1 pbc="F F F"
C       0.87978133      -0.68818014       0.11238771        6 
C       0.72413950       0.68113067      -0.13614002        6 
C      -0.24769492      -1.64896731      -0.11790608        6 
C      -0.63261955       1.26932819      -0.40527960        6 
O      -1.31869778      -1.36817151       0.65077408        8 
O      -0.22769840      -2.52289041      -0.94870336        8 
O      -1.20062263       1.71242177       0.72829262        8 
O      -1.12842242       1.37843413      -1.49994544        8 
C      -2.52457393       2.26552026       0.59631161        6 
C      -2.50005084      -2.15602061       0.39985423        6 
C       2.15394003      -1.20496749       0.35794971        6 
C       3.25669016      -0.35982305       0.41172338        6 
C       3.09839865       1.00441793       0.17150219        6 
C       1.83575346       1.52271598      -0.10263955        6 
H      -2.51612395       3.12714952      -0.07267600        1 
H      -2.84477732      -2.00148320      -0.62377225        1 
H       3.95719496       1.66494618       0.19462632        1 
H      -3.20852860       1.51134321       0.20345927        1 
H      -2.81498924       2.56031447       1.60193125        1 
H      -3.23938137      -1.80158965       1.11456160        1 
H      -2.29238305      -3.21547364       0.55450188        1 
H       4.23891423      -0.76696232       0.62095287        1 
H       1.70893216       2.58173264      -0.29480168        1 
H       2.27154529      -2.27320163       0.49688970        1 
