24
Lattice="0.0 0.0 0.0 0.0 0.0 0.0 0.0 0.0 0.0" Properties=species:S:1:pos:R:3:Z:I:1 pbc="F F F"
C       0.64991847      -0.79490944      -0.17830831        6 
C      -0.67928405      -0.55624131       0.19786997        6 
C       1.61388661       0.33067105      -0.43128007        6 
C      -1.21734848       0.83969775       0.21360870        6 
O       2.15464813       0.76500116       0.71331645        8 
O       1.90814185       0.73809074      -1.52897246        8 
O      -2.41232802       0.90180909      -0.40932482        8 
O      -0.69367413       1.78736245       0.74884191        8 
C      -3.05382217       2.19187387      -0.41598706        6 
C       3.04012692       1.89689039       0.60614729        6 
C       1.10835547      -2.10666741      -0.30424873        6 
C       0.25739216      -3.17789123      -0.04419772        6 
C      -1.06397129      -2.94355615       0.33237504        6 
C      -1.53616947      -1.63851079       0.42540572        6 
H      -3.22843472       2.53635970       0.60434178        1 
H       3.87623763       1.66816291      -0.05601073        1 
H      -1.73027774      -3.77454159       0.53319423        1 
H      -2.43408685       2.91973926      -0.94128374        1 
H      -3.99521493       2.04160668      -0.93947749        1 
H       3.38767780       2.08574388       1.61887681        1 
H       2.49238833       2.75847644       0.22223039        1 
H       0.62530421      -4.19313971      -0.13884323        1 
H      -2.57323569      -1.44979722       0.67283403        1 
H       2.13377941      -2.28591905      -0.60538456        1 
