24
Lattice="0.0 0.0 0.0 0.0 0.0 0.0 0.0 0.0 0.0" Properties=species:S:1:pos:R:3:Z:I:1 pbc="F F F"
C       0.72878437       0.74876391       0.05574512        6 
C      -0.67129565       0.63397512       0.09777463        6 
C       1.63189646      -0.42776089       0.31698460        6 
C      -1.29799795      -0.72099212       0.08183535        6 
O       2.10718352      -0.94737263      -0.82741930        8 
O       1.90353196      -0.82858762       1.41878145        8 
O      -2.62202439      -0.66622020      -0.18102663        8 
O      -0.71256274      -1.75846336       0.28869716        8 
C      -3.31157851      -1.92928946      -0.20208775        6 
C       2.89143389      -2.14973869      -0.68734946        6 
C       1.31300308       2.00827163      -0.07165972        6 
C       0.51977811       3.15051790      -0.14963516        6 
C      -0.86835977       3.04165222      -0.09307299        6 
C      -1.45925579       1.78784784       0.01316526        6 
H      -2.89503809      -2.57761039      -0.97434153        1 
H       3.78590975      -1.95810916      -0.09283501        1 
H      -1.48885320       3.92855472      -0.14518625        1 
H      -3.22999065      -2.42554374       0.76609036        1 
H      -4.34864264      -1.68723691      -0.42380578        1 
H       3.15829559      -2.43957017      -1.70111050        1 
H       2.29301980      -2.92482764      -0.20679902        1 
H       0.98672316       4.12384191      -0.24722780        1 
H      -2.53607563       1.68774490       0.02414179        1 
H       2.39305194       2.09307690      -0.09688477        1 
