24
Lattice="0.0 0.0 0.0 0.0 0.0 0.0 0.0 0.0 0.0" Properties=species:S:1:pos:R:3:Z:I:1 pbc="F F F"
C       0.73639064      -0.67505383       0.19161408        6 
C       0.78627309       0.68920938      -0.16635549        6 
C      -0.49987971      -1.52593602       0.18822778        6 
C      -0.36724440       1.64366693      -0.05668930        6 
O      -1.29366704      -1.24425498      -0.86078198        8 
O      -0.68289297      -2.46129346       0.93180783        8 
O      -1.47083260       1.08290367       0.46923403        8 
O      -0.27973270       2.82946501      -0.28322863        8 
C      -2.58937650       1.95992011       0.68680725        6 
C      -2.50159498      -2.01676742      -0.96311594        6 
C       1.92699686      -1.38441193       0.36376274        6 
C       3.15984804      -0.77505280       0.14886115        6 
C       3.21073179       0.55765698      -0.25057960        6 
C       2.03235803       1.28580495      -0.38054697        6 
H      -2.32481755       2.74859003       1.39270318        1 
H      -2.27401922      -3.08026942      -1.04934265        1 
H       4.16455108       1.03852698      -0.43346352        1 
H      -2.90862649       2.41106344      -0.25374516        1 
H      -3.37423543       1.32739888       1.09589913        1 
H      -2.99929864      -1.65671056      -1.86075628        1 
H      -3.12907663      -1.85390890      -0.08478906        1 
H       4.07278336      -1.34435826       0.28057296        1 
H       2.05621516       2.34176313      -0.61790096        1 
H       1.86681685      -2.42965378       0.64078676        1 
