24
Lattice="0.0 0.0 0.0 0.0 0.0 0.0 0.0 0.0 0.0" Properties=species:S:1:pos:R:3:Z:I:1 pbc="F F F"
C       0.64203122      -0.66699704       0.16337728        6 
C      -0.75453448      -0.69333836       0.02947353        6 
C       1.35410076       0.64260058       0.25359570        6 
C      -1.60926937       0.52397227       0.26071846        6 
O       2.52987105       0.60987380      -0.41048953        8 
O       0.96551674       1.60578408       0.86980807        8 
O      -1.87748609       1.16086552      -0.89464877        8 
O      -2.01068706       0.87004248       1.34006329        8 
C      -2.66331792       2.36510794      -0.77648191        6 
C       3.32338670       1.80906743      -0.33605073        6 
C       1.36290066      -1.86323616       0.07192318        6 
C       0.70471595      -3.07564227      -0.10416861        6 
C      -0.68196974      -3.09826932      -0.24283148        6 
C      -1.40571100      -1.91120040      -0.17520067        6 
H      -3.64340032       2.14023929      -0.35300290        1 
H       2.77332730       2.65487904      -0.75067983        1 
H      -1.20092208      -4.03740704      -0.39800849        1 
H      -2.14970119       3.08538484      -0.13868378        1 
H      -2.76132504       2.74578615      -1.79049122        1 
H       4.21303751       1.60290400      -0.92681267        1 
H       3.58850049       2.02661005       0.69974209        1 
H       1.27277402      -3.99750429      -0.14904239        1 
H      -2.48535756      -1.92788019      -0.27088887        1 
H       2.44238956      -1.83301002       0.14033584        1 
