24
Lattice="0.0 0.0 0.0 0.0 0.0 0.0 0.0 0.0 0.0" Properties=species:S:1:pos:R:3:Z:I:1 pbc="F F F"
C       0.73729762      -0.50161068      -0.19206402        6 
C       0.70546211       0.89047177      -0.00447547        6 
C      -0.48451067      -1.36460644      -0.35618023        6 
C      -0.54376181       1.67554499       0.26919561        6 
O      -0.56143919      -2.25705174       0.65722846        8 
O      -1.26764630      -1.32327989      -1.26860869        8 
O      -1.53198276       1.39875638      -0.58974009        8 
O      -0.63932374       2.46685847       1.17940530        8 
C      -2.79106293       2.05631106      -0.35614708        6 
C      -1.65022127      -3.19904145       0.58499755        6 
C       1.97185258      -1.15445942      -0.27131357        6 
C       3.16274831      -0.44015740      -0.20725655        6 
C       3.13201748       0.94033984      -0.02035960        6 
C       1.91103522       1.59127520       0.10730792        6 
H      -3.17045997       1.80827703       0.63639600        1 
H      -2.60725683      -2.67538067       0.57909378        1 
H       4.05472321       1.50463854       0.04584417        1 
H      -2.67688015       3.13827589      -0.43745580        1 
H      -3.45629199       1.67862025      -1.12889878        1 
H      -1.55603133      -3.81714838       1.47482053        1 
H      -1.56867531      -3.80641409      -0.31793581        1 
H       4.10896774      -0.96227051      -0.28966427        1 
H       1.87299694       2.65515902       0.30610711        1 
H       1.99084557      -2.23132317      -0.38940972        1 
