24
Lattice="0.0 0.0 0.0 0.0 0.0 0.0 0.0 0.0 0.0" Properties=species:S:1:pos:R:3:Z:I:1 pbc="F F F"
C       0.79483206      -0.67322723       0.05134380        6 
C       0.65778641       0.71155668       0.20590253        6 
C      -0.36422756      -1.60442036       0.27986549        6 
C      -0.70034516       1.31680341       0.39877794        6 
O      -1.00853365      -1.87266406      -0.87434546        8 
O      -0.68871999      -2.04114323       1.35251344        8 
O      -1.00430239       2.14430084      -0.62302927        8 
O      -1.42171716       1.12939988       1.34663605        8 
C      -2.28456276       2.80190747      -0.53845411        6 
C      -2.15995835      -2.73662627      -0.76581178        6 
C       2.05088887      -1.21975706      -0.21332889        6 
C       3.16710797      -0.39530359      -0.31937085        6 
C       3.03144778       0.98329305      -0.16639359        6 
C       1.77668267       1.53577119       0.07236243        6 
H      -3.08781446       2.06417243      -0.50972156        1 
H      -1.86693028      -3.71398076      -0.37961336        1 
H       3.89825370       1.62856036      -0.24695022        1 
H      -2.33632503       3.42403202       0.35625849        1 
H      -2.35458395       3.41087345      -1.43677898        1 
H      -2.55000864      -2.82421710      -1.77718131        1 
H      -2.90246582      -2.29448769      -0.10013877        1 
H       4.13977158      -0.82958396      -0.51920065        1 
H       1.65841269       2.60923588       0.15692681        1 
H       2.15206336      -2.29288256      -0.32858174        1 
