24
Lattice="0.0 0.0 0.0 0.0 0.0 0.0 0.0 0.0 0.0" Properties=species:S:1:pos:R:3:Z:I:1 pbc="F F F"
C       0.74238559      -0.65568491       0.09450641        6 
C       0.82687622       0.72747795      -0.13236363        6 
C      -0.54294991      -1.40059948       0.32395089        6 
C      -0.30812070       1.67223699       0.13292663        6 
O      -1.27552412      -1.48013149      -0.79782582        8 
O      -0.82888533      -1.95591309       1.35780642        8 
O      -1.45914237       1.30205542      -0.45415884        8 
O      -0.20414086       2.63993863       0.84888832        8 
C      -2.61168199       2.11294883      -0.15517975        6 
C      -2.52941359      -2.17759562      -0.68662196        6 
C       1.90400166      -1.43181284       0.07379366        6 
C       3.13775184      -0.85393144      -0.20423940        6 
C       3.22369377       0.51729349      -0.43931098        6 
C       2.07975785       1.30330700      -0.36817298        6 
H      -2.81547367       2.10320313       0.91662587        1 
H      -2.36681755      -3.21803472      -0.40132227        1 
H       4.18233462       0.97660003      -0.64960384        1 
H      -2.45033059       3.14110744      -0.48157907        1 
H      -3.43210258       1.65993331      -0.70744197        1 
H      -2.98099742      -2.11602718      -1.67418708        1 
H      -3.16604334      -1.69665440       0.05797285        1 
H       4.02796786      -1.47149056      -0.23020739        1 
H       2.14519063       2.37855615      -0.48060987        1 
H       1.82908305      -2.49456913       0.27207500        1 
