24
Lattice="0.0 0.0 0.0 0.0 0.0 0.0 0.0 0.0 0.0" Properties=species:S:1:pos:R:3:Z:I:1 pbc="F F F"
C       0.88937660      -0.67151540       0.15704766        6 
C       0.69221069       0.68910917      -0.12333016        6 
C      -0.18859784      -1.69822507       0.00636255        6 
C      -0.66730382       1.28517268      -0.36439715        6 
O      -1.40443395      -1.23464036       0.35505728        8 
O      -0.00184116      -2.80550289      -0.43984765        8 
O      -1.26427014       1.60986675       0.79362065        8 
O      -1.12153457       1.52928411      -1.45525588        8 
C      -2.58758452       2.16635832       0.68579219        6 
C      -2.51547525      -2.11700397       0.10687335        6 
C       2.18645916      -1.14506484       0.38320505        6 
C       3.26944040      -0.27544978       0.37808244        6 
C       3.07066182       1.07496554       0.09325148        6 
C       1.78826335       1.55202595      -0.16134394        6 
H      -2.57559579       3.07467431       0.08201942        1 
H      -2.57521888      -2.36122800      -0.95454060        1 
H       3.91279119       1.75664495       0.06509608        1 
H      -3.26285204       1.44005713       0.22987242        1 
H      -2.89327830       2.38472569       1.70633779        1 
H      -3.39738169      -1.56562803       0.42511232        1 
H      -2.40869042      -3.03582302       0.68492110        1 
H       4.26654001      -0.65210406       0.57328246        1 
H       1.63098238       2.59925584      -0.39157643        1 
H       2.32791393      -2.20615962       0.54804857        1 
