24
Lattice="0.0 0.0 0.0 0.0 0.0 0.0 0.0 0.0 0.0" Properties=species:S:1:pos:R:3:Z:I:1 pbc="F F F"
C       0.70395871       0.62869280       0.13124634        6 
C      -0.69954713       0.59445342       0.16944388        6 
C       1.55536477      -0.59735593       0.30106404        6 
C      -1.47753357      -0.68451507       0.28875606        6 
O       2.34753173      -0.77444513      -0.78232974        8 
O       1.57271526      -1.31444599       1.26593529        8 
O      -2.40457402      -0.75624621      -0.69752999        8 
O      -1.35218537      -1.52178205       1.14357047        8 
C      -3.27227308      -1.90578822      -0.65902580        6 
C       3.24648623      -1.89969845      -0.71974319        6 
C       1.35466007       1.85203844      -0.05347365        6 
C       0.63081768       3.03587201      -0.15126976        6 
C      -0.76116717       3.00314553      -0.10652009        6 
C      -1.41874662       1.78533439       0.02525086        6 
H      -2.69030056      -2.82558853      -0.73264264        1 
H       3.93384627      -1.79221493       0.12074216        1 
H      -1.33399153       3.91919009      -0.19222498        1 
H      -3.84677825      -1.91947991       0.26872142        1 
H      -3.93093032      -1.79823994      -1.51793017        1 
H       3.78677671      -1.88982039      -1.66359290        1 
H       2.68505340      -2.82823856      -0.60614874        1 
H       1.15239561       3.97810055      -0.27264357        1 
H      -2.50073397       1.74669440       0.01513042        1 
H       2.43577038       1.86850403      -0.11568635        1 
