24
Lattice="0.0 0.0 0.0 0.0 0.0 0.0 0.0 0.0 0.0" Properties=species:S:1:pos:R:3:Z:I:1 pbc="F F F"
C       0.78045828      -0.67781140       0.16888228        6 
C       0.76457242       0.69392380      -0.15871503        6 
C      -0.40959384      -1.58752739       0.09703664        6 
C      -0.45811233       1.55984772      -0.12750541        6 
O      -1.40233614      -1.08185192      -0.65915532        8 
O      -0.42776379      -2.71232884       0.54199039        8 
O      -1.32000686       1.17416782       0.83232196        8 
O      -0.59536066       2.56653182      -0.78241871        8 
C      -2.53686340       1.93265204       0.93137274        6 
C      -2.56076802      -1.91698982      -0.82649130        6 
C       2.00764361      -1.32145139       0.34753557        6 
C       3.20646681      -0.63190919       0.19381927        6 
C       3.18938489       0.71080778      -0.17405906        6 
C       1.97320072       1.36845905      -0.33998400        6 
H      -2.32120562       2.98637374       1.11264933        1 
H      -2.28517503      -2.86743266      -1.28539430        1 
H       4.11804176       1.25075943      -0.31804468        1 
H      -3.11547888       1.83708633       0.01045100        1 
H      -3.07912413       1.50088643       1.76964028        1 
H      -3.22841874      -1.35584952      -1.47662314        1 
H      -3.03386577      -2.10831943       0.13825049        1 
H       4.14785448      -1.14896035       0.33934244        1 
H       1.94154838       2.42205139      -0.58792882        1 
H       2.00020637      -2.37955368       0.57745088        1 
