24
Lattice="0.0 0.0 0.0 0.0 0.0 0.0 0.0 0.0 0.0" Properties=species:S:1:pos:R:3:Z:I:1 pbc="F F F"
C       0.66223143       0.65611216       0.14322917        6 
C      -0.73603674       0.72693254       0.03475731        6 
C       1.32379284      -0.68127814       0.19372150        6 
C      -1.62366508      -0.46665145       0.27375778        6 
O       2.57486748      -0.64399224      -0.31370768        8 
O       0.82705627      -1.68373478       0.65108560        8 
O      -1.94347955      -1.08086474      -0.87956550        8 
O      -2.00854396      -0.80906564       1.36072164        8 
C      -2.73559576      -2.27981719      -0.75011882        6 
C       3.29772834      -1.88897025      -0.28069349        6 
C       1.41843413       1.83033408       0.05875410        6 
C       0.79409845       3.06321550      -0.09546651        6 
C      -0.59322481       3.12885546      -0.21300637        6 
C      -1.35315125       1.96457615      -0.14526512        6 
H      -2.20052669      -3.01497061      -0.14776804        1 
H       3.41241217      -2.23686282       0.74694888        1 
H      -1.08523622       4.08492754      -0.35046266        1 
H      -3.69540854      -2.05549534      -0.28231020        1 
H      -2.87871370      -2.64170890      -1.76570223        1 
H       4.26642123      -1.67157909      -0.72487088        1 
H       2.77074379      -2.64881096      -0.85960956        1 
H       1.38878315       3.96796116      -0.13899180        1 
H      -2.43331023       2.01425903      -0.22089949        1 
H       2.49683645       1.76402435       0.11270869        1 
