24
Lattice="0.0 0.0 0.0 0.0 0.0 0.0 0.0 0.0 0.0" Properties=species:S:1:pos:R:3:Z:I:1 pbc="F F F"
C       0.68851935       0.63186155      -0.20092431        6 
C      -0.64388828       0.76118175       0.20845986        6 
C       1.28653334      -0.73563194      -0.32011343        6 
C      -1.48681833      -0.46048735       0.44901436        6 
O       2.38057525      -0.86507427       0.45138389        8 
O       0.87216977      -1.60333258      -1.05194164        8 
O      -2.25042627      -0.73703618      -0.61755502        8 
O      -1.50886776      -1.08017648       1.48472237        8 
C      -3.06728488      -1.92209501      -0.52178427        6 
C       3.03892928      -2.14705746       0.39603338        6 
C       1.46216076       1.77335194      -0.41612611        6 
C       0.89444340       3.03677640      -0.27741463        6 
C      -0.43667079       3.16370421       0.11695132        6 
C      -1.20491141       2.02794170       0.35951288        6 
H      -2.43421744      -2.80010538      -0.38811086        1 
H       2.36418423      -2.93112766       0.74221543        1 
H      -0.87836137       4.14631252       0.23575419        1 
H      -3.76204119      -1.84134106       0.31535015        1 
H      -3.60399726      -1.97703849      -1.46586954        1 
H       3.89612433      -2.05844539       1.05924871        1 
H       3.35788059      -2.36843863      -0.62340454        1 
H       1.49263377       3.92045293      -0.46617219        1 
H      -2.24007362       2.12251737       0.66641689        1 
H       2.50268144       1.66608097      -0.69718453        1 
