24
Lattice="0.0 0.0 0.0 0.0 0.0 0.0 0.0 0.0 0.0" Properties=species:S:1:pos:R:3:Z:I:1 pbc="F F F"
C      -0.63086193      -0.67853899       0.12872794        6 
C      -0.94532254       0.66939557      -0.09292096        6 
C       0.77568327      -1.12924040       0.40007229        6 
C       0.08587200       1.74514164       0.00561107        6 
O       1.27091993      -1.81549368      -0.64439080        8 
O       1.35659591      -0.97051530       1.44540310        8 
O       1.24144711       1.37833884      -0.58410216        8 
O      -0.07813358       2.79814828       0.57181791        8 
C       2.35762491       2.26865503      -0.39991049        6 
C       2.60709065      -2.32854618      -0.48423860        6 
C      -1.64620243      -1.63665284       0.10762272        6 
C      -2.96773745      -1.25792134      -0.11184899        6 
C      -3.28426641       0.08463134      -0.31594119        6 
C      -2.27779593       1.04380818      -0.29123463        6 
H       2.12076692       3.26247219      -0.78122744        1 
H       3.30891121      -1.50830836      -0.32639808        1 
H      -4.31234625       0.38259781      -0.48551186        1 
H       2.61020685       2.33446371       0.65946252        1 
H       3.17618995       1.82595794      -0.96282756        1 
H       2.82896430      -2.84997902      -1.41245634        1 
H       2.65565832      -3.01230929       0.36457724        1 
H      -3.74825478      -2.01032726      -0.12228338        1 
H      -2.51042059       2.09318835      -0.42534851        1 
H      -1.40009365      -2.67946670       0.27001226        1 
