24
Lattice="0.0 0.0 0.0 0.0 0.0 0.0 0.0 0.0 0.0" Properties=species:S:1:pos:R:3:Z:I:1 pbc="F F F"
C       0.91074795      -0.67243474      -0.02931841        6 
C       0.67016657       0.70335598       0.12049447        6 
C      -0.15698057      -1.71880367      -0.03814510        6 
C      -0.69663344       1.28726418       0.35530563        6 
O      -1.39711361      -1.19721942      -0.00132510        8 
O       0.05936046      -2.90826016      -0.08045065        8 
O      -1.26913702       1.66055957      -0.80226642        8 
O      -1.18223262       1.46423826       1.44386849        8 
C      -2.59584681       2.21223638      -0.69817166        6 
C      -2.48750552      -2.13541805       0.03636652        6 
C       2.22616263      -1.12679002      -0.18066372        6 
C       3.29044909      -0.23518543      -0.19043363        6 
C       3.04815165       1.12972407      -0.04377467        6 
C       1.74500980       1.59337272       0.11248424        6 
H      -3.27143198       1.48113829      -0.25111894        1 
H      -2.49440528      -2.74676311      -0.86712357        1 
H       3.87169724       1.83452877      -0.04815519        1 
H      -2.58885427       3.11593568      -0.08716701        1 
H      -2.89539102       2.43896590      -1.71868985        1 
H      -3.38751585      -1.52790414       0.09739747        1 
H      -2.40087795      -2.78228442       0.91020179        1 
H       4.30307610      -0.60187628      -0.30977888        1 
H       1.55731414       2.65360259       0.23607095        1 
H       2.38612853      -2.19204889      -0.29034442        1 
