24
Lattice="0.0 0.0 0.0 0.0 0.0 0.0 0.0 0.0 0.0" Properties=species:S:1:pos:R:3:Z:I:1 pbc="F F F"
C       1.08042365       0.19513383      -0.00460684        6 
C      -0.11830440       0.91038101      -0.14139677        6 
C       1.12526549      -1.29402319      -0.21604259        6 
C      -1.40975956       0.16904868      -0.26314950        6 
O       0.75789236      -1.95851110       0.89496989        8 
O       1.42570229      -1.81621819      -1.25751094        8 
O      -2.40519710       0.79502607       0.39944460        8 
O      -1.57172338      -0.84204378      -0.90478410        8 
C      -3.70770818       0.18834277       0.29408052        6 
C       0.62792542      -3.38879582       0.75414159        6 
C       2.27877985       0.88311674       0.18008332        6 
C       2.28756249       2.27388761       0.24446065        6 
C       1.09656003       2.98661113       0.11425399        6 
C      -0.10367028       2.30580420      -0.05793852        6 
H      -4.03358572       0.16386866      -0.74701279        1 
H      -0.12289506      -3.61731197      -0.00339519        1 
H       1.10131695       4.06936997       0.15848165        1 
H      -3.68547945      -0.82911062       0.68688731        1 
H      -4.36652189       0.81606926       0.88975198        1 
H       0.31438618      -3.74724200       1.73190511        1 
H       1.58208513      -3.83304633       0.46770448        1 
H       3.22422847       2.79960289       0.38980912        1 
H      -1.03759238       2.84797020      -0.13170507        1 
H       3.20424979       0.32571593       0.26558667        1 
