24
Lattice="0.0 0.0 0.0 0.0 0.0 0.0 0.0 0.0 0.0" Properties=species:S:1:pos:R:3:Z:I:1 pbc="F F F"
C       0.95256861      -0.64077825       0.03796276        6 
C       0.61972847       0.71596096      -0.10184526        6 
C      -0.05352231      -1.74551398       0.02917679        6 
C      -0.78159384       1.17868941      -0.38777584        6 
O      -1.29218671      -1.31091049       0.33100013        8 
O       0.20924475      -2.90344959      -0.19800757        8 
O      -1.32918980       1.77465056       0.68567674        8 
O      -1.31889648       1.09103933      -1.46365714        8 
C      -2.67728468       2.25428409       0.51612300        6 
C      -2.34756539      -2.28705331       0.26503148        6 
C       2.29314316      -1.00886171       0.18943059        6 
C       3.29280124      -0.04475431       0.22608236        6 
C       2.95803541       1.30303767       0.10513469        6 
C       1.62751292       1.67962601      -0.05821438        6 
H      -2.71791781       3.01831578      -0.26175857        1 
H      -2.40184781      -2.71794359      -0.73542996        1 
H       3.73131328       2.06212176       0.13359243        1 
H      -3.33812850       1.42966452       0.24454740        1 
H      -2.95873629       2.67101487       1.48039864        1 
H      -3.25942506      -1.74144925       0.49728576        1 
H      -2.17756148      -3.08038918       0.99413524        1 
H       4.32729987      -0.34257867       0.34951128        1 
H       1.36771240       2.72616817      -0.16507793        1 
H       2.52805887      -2.06203236       0.28052925        1 
