24
Lattice="0.0 0.0 0.0 0.0 0.0 0.0 0.0 0.0 0.0" Properties=species:S:1:pos:R:3:Z:I:1 pbc="F F F"
C      -0.68970361      -0.66003797       0.14352164        6 
C      -0.84858609       0.69718055      -0.18331800        6 
C       0.63513173      -1.34126673       0.34611684        6 
C       0.23430038       1.71614392      -0.00889338        6 
O       1.27260062      -1.50999717      -0.82397242        8 
O       1.01125214      -1.80471448       1.39526997        8 
O       1.46426779       1.23114025      -0.25695685        8 
O       0.03146269       2.83801206       0.39332302        8 
C       2.56257793       2.11577438       0.03200237        6 
C       2.54172195      -2.18386968      -0.75760556        6 
C      -1.81268824      -1.48949768       0.20911853        6 
C      -3.08104103      -0.99382616      -0.07577529        6 
C      -3.24070588       0.34841963      -0.41607236        6 
C      -2.13512278       1.18985180      -0.43653756        6 
H       2.49392354       3.01895834      -0.57546489        1 
H       3.23235011      -1.62887638      -0.12036544        1 
H      -4.22544450       0.74292601      -0.63786120        1 
H       2.56020800       2.38955120       1.08801327        1 
H       3.45877806       1.55245838      -0.21795064        1 
H       2.90570563      -2.21472476      -1.78204991        1 
H       2.42060610      -3.19301497      -0.36075329        1 
H      -3.94002293      -1.65346240      -0.02933187        1 
H      -2.25349175       2.24850996      -0.63120294        1 
H      -1.68266168      -2.53170665       0.47618637        1 
