24
Lattice="0.0 0.0 0.0 0.0 0.0 0.0 0.0 0.0 0.0" Properties=species:S:1:pos:R:3:Z:I:1 pbc="F F F"
C       0.79648870      -0.68136256       0.15344477        6 
C       0.75624085       0.69323199      -0.15592127        6 
C      -0.37912729      -1.60838760       0.07384992        6 
C      -0.49112967       1.52438371      -0.16183127        6 
O      -1.43121765      -1.06367731      -0.56546575        8 
O      -0.35038331      -2.76587592       0.42506707        8 
O      -1.28479567       1.23034091       0.88500711        8 
O      -0.70123291       2.43333503      -0.92933956        8 
C      -2.52546094       1.95291115       0.95795514        6 
C      -2.58014326      -1.91141357      -0.73725201        6 
C       2.03596185      -1.30253864       0.33141291        6 
C       3.22078925      -0.58556429       0.20189190        6 
C       3.17889045       0.76245024      -0.14519721        6 
C       1.95099554       1.39591600      -0.31885489        6 
H      -2.34397425       3.02673386       1.02089951        1 
H      -2.31338724      -2.80835938      -1.29773167        1 
H       4.09737985       1.32382050      -0.27147744        1 
H      -3.13594608       1.74301682       0.07746232        1 
H      -3.01703005       1.59315113       1.85904678        1 
H      -3.29921967      -1.31202099      -1.29128361        1 
H      -2.98644084      -2.20134457       0.23323016        1 
H       4.17151669      -1.08484035       0.34839883        1 
H       1.90165187       2.44988879      -0.56283320        1 
H       2.04835146      -2.36427015       0.54358620        1 
