24
Lattice="0.0 0.0 0.0 0.0 0.0 0.0 0.0 0.0 0.0" Properties=species:S:1:pos:R:3:Z:I:1 pbc="F F F"
C       0.77618356       0.74168727      -0.16302353        6 
C      -0.59325362       0.61310886       0.13799744        6 
C       1.70795409      -0.42719682      -0.32083844        6 
C      -1.28221989      -0.70593784      -0.03055037        6 
O       1.79108401      -1.13382348       0.81517050        8 
O       2.38737150      -0.62231402      -1.29992984        8 
O      -2.62517262      -0.56008747      -0.09788952        8 
O      -0.74287281      -1.78584277      -0.08590939        8 
C      -3.38240343      -1.77542851      -0.24104645        6 
C       2.55626531      -2.35071225       0.74826577        6 
C       1.35286571       2.00966497      -0.22945716        6 
C       0.59490945       3.14755117       0.03418786        6 
C      -0.75361062       3.02443994       0.36055941        6 
C      -1.34719885       1.76710503       0.38448633        6 
H      -3.08785313      -2.30374784      -1.14877882        1 
H       2.08135571      -3.04200386       0.05026264        1 
H      -1.34855185       3.90588482       0.56952327        1 
H      -3.22469936      -2.42629822       0.62042278        1 
H      -4.42211005      -1.46109567      -0.29983052        1 
H       2.53950525      -2.75754273       1.75676521        1 
H       3.57922444      -2.14848981       0.42860563        1 
H       1.05874799       4.12602275      -0.01407745        1 
H      -2.40625206       1.66798951       0.57866561        1 
H       2.40375891       2.09491013      -0.47824090        1 
