24
Lattice="0.0 0.0 0.0 0.0 0.0 0.0 0.0 0.0 0.0" Properties=species:S:1:pos:R:3:Z:I:1 pbc="F F F"
C      -0.69122195      -0.65820757       0.13569152        6 
C      -0.87821051       0.70153505      -0.15062671        6 
C       0.66124690      -1.26694427       0.38283490        6 
C       0.20980822       1.71022688       0.03914167        6 
O       1.24650289      -1.61667421      -0.77379603        8 
O       1.11468668      -1.50969756       1.47443111        8 
O       1.38972098       1.29287677      -0.45804107        8 
O       0.06406943       2.74939733       0.63660482        8 
C       2.52522334       2.13522975      -0.18247863        6 
C       2.54332916      -2.23203871      -0.66387109        6 
C      -1.79096056      -1.51930488       0.14980052        6 
C      -3.06718222      -1.04050569      -0.12994986        6 
C      -3.25620050       0.31111337      -0.41568167        6 
C      -2.17074635       1.17894918      -0.39629323        6 
H       2.36835395       3.13306826      -0.59356589        1 
H       3.24863542      -1.54276523      -0.19654676        1 
H      -4.24856209       0.68995391      -0.63066111        1 
H       2.68694679       2.20843739       0.89402031        1 
H       3.36879910       1.64830129      -0.66643660        1 
H       2.84415017      -2.45479424      -1.68486929        1 
H       2.48548087      -3.14501043      -0.06942198        1 
H      -3.91102620      -1.72095100      -0.12175135        1 
H      -2.31170965       2.24022184      -0.56113178        1 
H      -1.64169031      -2.56820677       0.37875440        1 
