24
Lattice="0.0 0.0 0.0 0.0 0.0 0.0 0.0 0.0 0.0" Properties=species:S:1:pos:R:3:Z:I:1 pbc="F F F"
C       0.68429998      -0.73259461       0.18359046        6 
C      -0.67290996      -0.61123083      -0.14260186        6 
C       1.52655157       0.48642130       0.43366130        6 
C      -1.29437531       0.74420880      -0.22497430        6 
O       2.30796462       0.75724872      -0.62115409        8 
O       1.53585854       1.10188030       1.47128440        8 
O      -2.51832209       0.76335724       0.33707446        8 
O      -0.79332297       1.69606397      -0.77630346        8 
C      -3.22960729       2.01396862       0.25690351        6 
C       3.12009212       1.94417006      -0.51341037        6 
C       1.26083208      -1.99878060       0.27900610        6 
C       0.49003579      -3.13936684       0.06447281        6 
C      -0.86291327      -3.02107807      -0.24904594        6 
C      -1.44569056      -1.76058185      -0.33478133        6 
H      -2.66187773       2.80419261       0.74931348        1 
H       2.48309943       2.81595320      -0.36025362        1 
H      -1.46402863      -3.90739067      -0.41632215        1 
H      -3.40108764       2.28772998      -0.78533044        1 
H      -4.17282805       1.84123889       0.77007238        1 
H       3.65005126       2.01594423      -1.46018338        1 
H       3.82130456       1.85267519       0.31732235        1 
H       0.94699357      -4.11928261       0.14290172        1 
H      -2.50056833      -1.65807755      -0.55594596        1 
H       2.31183350      -2.09161239       0.52600597        1 
