24
Lattice="0.0 0.0 0.0 0.0 0.0 0.0 0.0 0.0 0.0" Properties=species:S:1:pos:R:3:Z:I:1 pbc="F F F"
C       1.04674893      -0.36244123      -0.13729193        6 
C       0.24648850       0.79175943       0.03136731        6 
C       0.57550248      -1.78712691       0.00409642        6 
C      -1.22310926       0.84409756      -0.27785563        6 
O      -0.74801531      -1.90945854       0.14982124        8 
O       1.33834975      -2.72277068       0.11123540        8 
O      -1.85140254       1.76067964       0.49753351        8 
O      -1.78773253       0.19621078      -1.12104902        8 
C      -3.25302835       1.94657213       0.23161062        6 
C      -1.25047739      -3.23958720       0.36104692        6 
C       2.43812190      -0.22193758      -0.14805383        6 
C       3.04683918       1.02059543      -0.01060289        6 
C       2.26121748       2.14856343       0.20045506        6 
C       0.87451382       2.02945803       0.21491072        6 
H      -3.40720757       2.27686127      -0.79698913        1 
H      -0.98533278      -3.88392784      -0.47830622        1 
H       2.71933860       3.12097920       0.33939027        1 
H      -3.79807821       1.01510939       0.39257090        1 
H      -3.58231801       2.70929557       0.93390420        1 
H      -2.33017261      -3.12808100       0.43026279        1 
H      -0.84391677      -3.66179457       1.28166871        1 
H       4.12728199       1.09907505      -0.04037344        1 
H       0.25685519       2.90892984       0.33917210        1 
H       3.03271653      -1.12266994      -0.22977611        1 
