24
Lattice="0.0 0.0 0.0 0.0 0.0 0.0 0.0 0.0 0.0" Properties=species:S:1:pos:R:3:Z:I:1 pbc="F F F"
C      -0.32767850      -0.80251993      -0.01233716        6 
C      -1.06306802       0.39674023      -0.05246653        6 
C       1.14075016      -0.83331483      -0.30025736        6 
C      -0.44113581       1.75812043      -0.06720005        6 
O       1.76215104      -1.79730017       0.41129272        8 
O       1.70065782      -0.13173559      -1.10692866        8 
O       0.67985818       1.80460396       0.67262089        8 
O      -0.93747893       2.72156725      -0.60154057        8 
C       1.39737392       3.05085536       0.65284326        6 
C       3.16469743      -1.97298710       0.13975642        6 
C      -1.00701856      -2.01677747       0.12708201        6 
C      -2.39714974      -2.05047808       0.20646274        6 
C      -3.12472663      -0.86520364       0.14011568        6 
C      -2.45719025       0.35027259       0.01442900        6 
H       1.72823362       3.27364367      -0.36265781        1 
H       3.31736186      -2.26086043      -0.90175502        1 
H      -4.20720918      -0.88412759       0.19314911        1 
H       0.76614608       3.86245291       1.01712969        1 
H       2.25177497       2.90257924       1.30924022        1 
H       3.49149772      -2.76514068       0.80958312        1 
H       3.70930966      -1.04938312       0.33997772        1 
H      -2.90820186      -3.00099476       0.30917892        1 
H      -3.00759319       1.28229937      -0.02074708        1 
H      -0.43827480      -2.93727650       0.15126871        1 
