24
Lattice="0.0 0.0 0.0 0.0 0.0 0.0 0.0 0.0 0.0" Properties=species:S:1:pos:R:3:Z:I:1 pbc="F F F"
C       0.70899541       0.62319543       0.03565722        6 
C      -0.68494593       0.70626369      -0.10815477        6 
C       1.34925110      -0.72036756       0.13514141        6 
C      -1.52786420      -0.50902495      -0.38264949        6 
O       2.66830494      -0.68409110      -0.14121691        8 
O       0.76338523      -1.73167389       0.44539765        8 
O      -2.34140180      -0.78452547       0.65012630        8 
O      -1.52260228      -1.10859783      -1.42817067        8 
C      -3.18247851      -1.94470123       0.49095048        6 
C       3.35901306      -1.94468008      -0.05551472        6 
C       1.46039708       1.79585163       0.15672571        6 
C       0.83290634       3.03804585       0.14994925        6 
C      -0.55219616       3.11650472       0.01974407        6 
C      -1.30749123       1.95322272      -0.10832553        6 
H      -3.85520022      -1.81554933      -0.35833392        1 
H       3.29938116      -2.34481733       0.95787348        1 
H      -1.04609085       4.08140555       0.01668468        1 
H      -2.56752748      -2.83203151       0.33598032        1 
H      -3.74451694      -2.02245270       1.41887087        1 
H       4.39045511      -1.72707687      -0.32313573        1 
H       2.92342650      -2.66278066      -0.75156825        1 
H       1.42313386       3.94131858       0.24984895        1 
H      -2.38380675       2.01094021      -0.22031498        1 
H       2.53370407       1.72179078       0.27063919        1 
