24
Lattice="0.0 0.0 0.0 0.0 0.0 0.0 0.0 0.0 0.0" Properties=species:S:1:pos:R:3:Z:I:1 pbc="F F F"
C       1.09285213       0.02580066       0.16748414        6 
C      -0.05167713       0.82490560      -0.06112181        6 
C       1.12980382      -1.47672833       0.09197027        6 
C      -1.43504278       0.34494028       0.27123848        6 
O       0.04982457      -1.99169284      -0.51122290        8 
O       2.10482867      -2.13517825       0.37859544        8 
O      -2.38157406       1.12696789      -0.30113350        8 
O      -1.70275362      -0.60191965       0.96759333        8 
C      -3.74489615       0.78031775      -0.00176194        6 
C       0.01961568      -3.42043689      -0.66081804        6 
C       2.35159737       0.63041262       0.18374118        6 
C       2.49994117       1.99826939      -0.02861636        6 
C       1.38049076       2.77686791      -0.30068528        6 
C       0.11575237       2.19340606      -0.29790469        6 
H      -3.96001721      -0.23873314      -0.32653703        1 
H       0.87569840      -3.76405383      -1.24340957        1 
H       1.48255421       3.83903892      -0.49080480        1 
H      -3.93424241       0.86156369       1.06997449        1 
H      -4.35241698       1.49452560      -0.55344359        1 
H      -0.91227972      -3.63437456      -1.17937888        1 
H       0.02983773      -3.90300238       0.31775693        1 
H       3.48780773       2.44342766      -0.00554992        1 
H      -0.76382456       2.80443578      -0.44716623        1 
H       3.21558200      -0.00508669       0.33191170        1 
