24
Lattice="0.0 0.0 0.0 0.0 0.0 0.0 0.0 0.0 0.0" Properties=species:S:1:pos:R:3:Z:I:1 pbc="F F F"
C      -0.65904219      -0.68650656      -0.17050328        6 
C      -0.73830221       0.70813454      -0.08273035        6 
C       0.65184642      -1.38807644      -0.37322579        6 
C       0.46418008       1.57796854      -0.31726315        6 
O       0.97529821      -2.10963877       0.72090665        8 
O       1.30780130      -1.36904420      -1.38346564        8 
O       1.00479652       1.98165414       0.85028140        8 
O       0.89187954       1.88012247      -1.40046456        8 
C       2.17091989       2.82495538       0.74159728        6 
C       2.17905452      -2.89751790       0.62186932        6 
C      -1.81345423      -1.45643517      -0.00550621        6 
C      -3.04564908      -0.84541160       0.20397390        6 
C      -3.12434568       0.54307319       0.29152906        6 
C      -1.97342149       1.31443020       0.15652707        6 
H       2.96499776       2.30388276       0.20496003        1 
H       2.08674679      -3.63218349      -0.17973184        1 
H      -4.07891938       1.02575956       0.46664236        1 
H       1.92515492       3.74659522       0.21191084        1 
H       2.46945392       3.03658931       1.76549645        1 
H       2.28026454      -3.38991382       1.58616764        1 
H       3.03864720      -2.25628307       0.42268705        1 
H      -3.93772278      -1.45162609       0.31169469        1 
H      -2.03252075       2.39427336       0.22828366        1 
H      -1.74156710      -2.53696859      -0.04440438        1 
