24
Lattice="0.0 0.0 0.0 0.0 0.0 0.0 0.0 0.0 0.0" Properties=species:S:1:pos:R:3:Z:I:1 pbc="F F F"
C       0.90744711      -0.70619657       0.08271295        6 
C       0.67885752       0.68018241       0.11454362        6 
C      -0.17576771      -1.73259398      -0.03029616        6 
C      -0.67399542       1.29624304       0.34996034        6 
O      -1.39170624      -1.24403622       0.26969376        8 
O       0.00880112      -2.86926709      -0.40139440        8 
O      -1.21838556       1.73145481      -0.80230589        8 
O      -1.18555635       1.42018782       1.43249691        8 
C      -2.52454495       2.33097280      -0.69275423        6 
C      -2.50275401      -2.14647495       0.12687346        6 
C       2.22079437      -1.18207696      -0.00670632        6 
C       3.29691161      -0.30516282      -0.03988007        6 
C       3.06652591       1.06942607      -0.02080956        6 
C       1.76481791       1.55573589       0.05468052        6 
H      -3.23566681       1.60951765      -0.28722913        1 
H      -2.59184957      -2.47883975      -0.90859151        1 
H       3.89796448       1.76364463      -0.06169990        1 
H      -2.49100319       3.20678217      -0.04325336        1 
H      -2.79890856       2.61354985      -1.70649484        1 
H      -3.37732552      -1.57305548       0.42582673        1 
H      -2.37422062      -3.01434433       0.77485106        1 
H       4.30812806      -0.69053694      -0.09594669        1 
H       1.58586046       2.62434095       0.07781893        1 
H       2.37111423      -2.25274116      -0.06487249        1 
