24
Lattice="0.0 0.0 0.0 0.0 0.0 0.0 0.0 0.0 0.0" Properties=species:S:1:pos:R:3:Z:I:1 pbc="F F F"
C       0.90474796      -0.66498235      -0.13079008        6 
C       0.68007863       0.69457401       0.13354882        6 
C      -0.16315522      -1.70567261      -0.02131707        6 
C      -0.69170582       1.25870068       0.38220860        6 
O      -1.38341189      -1.23144806      -0.34044784        8 
O       0.03340561      -2.83677269       0.35573063        8 
O      -1.26573072       1.65247040      -0.76655948        8 
O      -1.17617343       1.41960522       1.47512725        8 
C      -2.59906125       2.18421489      -0.65457841        6 
C      -2.48957496      -2.12975650      -0.13382238        6 
C       2.21098192      -1.11718132      -0.34699617        6 
C       3.27769630      -0.22772205      -0.34399483        6 
C       3.05128311       1.12265677      -0.08036606        6 
C       1.75870206       1.57917857       0.16104260        6 
H      -3.26858931       1.43120707      -0.23552681        1 
H      -2.38617828      -3.01241380      -0.76629848        1 
H       3.87999790       1.82090593      -0.05930258        1 
H      -2.60817088       3.06931617      -0.01709119        1 
H      -2.89512778       2.43748300      -1.66998300        1 
H      -3.37611927      -1.56337993      -0.41019565        1 
H      -2.53835466      -2.43570695       0.91195132        1 
H       4.28277825      -0.58748197      -0.52975614        1 
H       1.58147922       2.62667231       0.37501807        1 
H       2.37039392      -2.17641611      -0.50689519        1 
