24
Lattice="0.0 0.0 0.0 0.0 0.0 0.0 0.0 0.0 0.0" Properties=species:S:1:pos:R:3:Z:I:1 pbc="F F F"
C       0.87771640      -0.71834945       0.03038236        6 
C       0.78300043       0.67929639       0.11025311        6 
C      -0.31746992      -1.60664939      -0.10076437        6 
C      -0.53237504       1.38391506       0.29233273        6 
O      -1.35760288      -1.17110019       0.63508987        8 
O      -0.36091978      -2.58451465      -0.80913996        8 
O      -1.20127573       1.47310038      -0.87382463        8 
O      -0.94138010       1.80477692       1.34358264        8 
C      -2.51409814       2.06266620      -0.80281565        6 
C      -2.58923231      -1.90304042       0.49802566        6 
C       2.13562478      -1.31984136      -0.07422235        6 
C       3.29153826      -0.54943600      -0.05486942        6 
C       3.19638735       0.83836604       0.03970681        6 
C       1.94776890       1.44776686       0.12418013        6 
H      -3.15458695       1.47507155      -0.14275694        1 
H      -2.92744073      -1.88475589      -0.53942644        1 
H       4.09306502       1.44701529       0.04854942        1 
H      -2.45488667       3.08559202      -0.42896976        1 
H      -2.89357257       2.04704835      -1.82198020        1 
H      -3.29875586      -1.39402523       1.14648685        1 
H      -2.45446999      -2.93811140       0.81455841        1 
H       4.26156411      -1.02791400      -0.12068731        1 
H       1.87110125       2.52582070       0.20334644        1 
H       2.18776111      -2.39700696      -0.17532147        1 
