24
Lattice="0.0 0.0 0.0 0.0 0.0 0.0 0.0 0.0 0.0" Properties=species:S:1:pos:R:3:Z:I:1 pbc="F F F"
C       0.73428023       0.51888700       0.16933608        6 
C      -0.67031430       0.56641896       0.04359070        6 
C       1.50195998      -0.77331652       0.15628255        6 
C      -1.58912676      -0.60798812       0.24162006        6 
O       2.70419171      -0.59750037      -0.45204554        8 
O       1.15355704      -1.83238615       0.60861772        8 
O      -2.54368907      -0.62545543      -0.72225598        8 
O      -1.53430498      -1.40786833       1.13588656        8 
C      -3.53145511      -1.66614067      -0.60224803        6 
C       3.54485304      -1.76328362      -0.51008054        6 
C       1.45589507       1.71894344       0.14268400        6 
C       0.81341856       2.94688675       0.02985390        6 
C      -0.56907064       2.99018786      -0.12326594        6 
C      -1.29801818       1.80613792      -0.12491936        6 
H      -3.05483825      -2.64725522      -0.61919718        1 
H       3.78120961      -2.11626783       0.49505403        1 
H      -1.08103035       3.93863083      -0.23835809        1 
H      -4.09118227      -1.55659208       0.32845859        1 
H      -4.18770853      -1.54202231      -1.46092175        1 
H       4.44652957      -1.44310733      -1.02768354        1 
H       3.04933289      -2.56407887      -1.06135326        1 
H       1.39383946       3.86193477       0.04019891        1 
H      -2.37381746       1.83244879      -0.24147068        1 
H       2.53457567       1.67645201       0.20213253        1 
