24
Lattice="0.0 0.0 0.0 0.0 0.0 0.0 0.0 0.0 0.0" Properties=species:S:1:pos:R:3:Z:I:1 pbc="F F F"
C      -0.65468713      -0.68153477       0.12194025        6 
C      -0.90590222       0.69211501      -0.02981311        6 
C       0.71068641      -1.27009321       0.35144574        6 
C       0.15587035       1.74225022      -0.03811649        6 
O       1.26640635      -1.66145574      -0.80857347        8 
O       1.20046886      -1.45149526       1.43734361        8 
O       1.39555678       1.22151538       0.00745581        8 
O      -0.06351299       2.93086914      -0.08503186        8 
C       2.48417882       2.15988438       0.05785598        6 
C       2.57067917      -2.26417247      -0.70884895        6 
C      -1.72401049      -1.58034826       0.11420840        6 
C      -3.03140584      -1.12978036      -0.04220604        6 
C      -3.28437431       0.23302562      -0.19048267        6 
C      -2.22681872       1.13350309      -0.18173063        6 
H       2.50745349       2.76343785      -0.85055587        1 
H       3.27562263      -1.56322409      -0.25931551        1 
H      -4.30024116       0.59073212      -0.31066841        1 
H       2.37988655       2.81352401       0.92459272        1 
H       3.38304288       1.55331618       0.14101365        1 
H       2.85948012      -2.49856841      -1.73077783        1 
H       2.52762517      -3.17001036      -0.10225331        1 
H      -3.84874753      -1.84218394      -0.04645981        1 
H      -2.39887233       2.19652279      -0.29353259        1 
H      -1.52867860      -2.63942436       0.23724383        1 
