24
Lattice="0.0 0.0 0.0 0.0 0.0 0.0 0.0 0.0 0.0" Properties=species:S:1:pos:R:3:Z:I:1 pbc="F F F"
C       0.74979768      -0.68202243       0.13743846        6 
C       0.79526491       0.71431513       0.06619514        6 
C      -0.54434837      -1.40041333       0.39860748        6 
C      -0.43597042       1.53249594       0.33838870        6 
O      -1.11191994      -1.80021414      -0.75554659        8 
O      -1.01117571      -1.61247966       1.48918035        8 
O      -1.15483115       1.72045214      -0.78535195        8 
O      -0.75843763       1.94343720       1.42351794        8 
C      -2.39124440       2.44901833      -0.63038385        6 
C      -2.36455374      -2.50617775      -0.63505141        6 
C       1.91497164      -1.42594404      -0.04785967        6 
C       3.12485595      -0.78295061      -0.29260248        6 
C       3.17075213       0.60794362      -0.36383819        6 
C       2.00924101       1.35405819      -0.18234045        6 
H      -3.05312399       1.92623071       0.06170886        1 
H      -2.23192199      -3.42294293      -0.05853194        1 
H       4.10989760       1.11298052      -0.55718094        1 
H      -2.19766949       3.45338774      -0.25139743        1 
H      -2.82684000       2.48971310      -1.62582842        1 
H      -2.66561151      -2.73227821      -1.65514431        1 
H      -3.10797235      -1.87746057      -0.14275868        1 
H       4.02706718      -1.36725317      -0.43120180        1 
H       2.04263741       2.43635543      -0.22846422        1 
H       1.87031147      -2.50791205       0.00070446        1 
