24
Lattice="0.0 0.0 0.0 0.0 0.0 0.0 0.0 0.0 0.0" Properties=species:S:1:pos:R:3:Z:I:1 pbc="F F F"
C       0.79200086      -0.68379195      -0.14143795        6 
C       0.77340420       0.69429201       0.15131838        6 
C      -0.40794451      -1.57891203      -0.08681694        6 
C      -0.46258421       1.54036144       0.13799750        6 
O      -1.38640019      -1.07899699       0.69236990        8 
O      -0.45302266      -2.68257170      -0.57926916        8 
O      -1.30410650       1.17259351      -0.84762884        8 
O      -0.63358594       2.51019728       0.83782592        8 
C      -2.53854542       1.90441673      -0.93138046        6 
C      -2.57128383      -1.88394303       0.81814480        6 
C       2.01869634      -1.33020962      -0.31108018        6 
C       3.21582588      -0.63331230      -0.17968308        6 
C       3.19650306       0.71963902       0.15005942        6 
C       1.97976041       1.37827915       0.30832528        6 
H      -3.12325605       1.76156732      -0.02045088        1 
H      -3.04391654      -2.01756253      -0.15649732        1 
H       4.12456789       1.26585894       0.27249264        1 
H      -2.34703298       2.96894827      -1.07223056        1 
H      -3.06198953       1.49089757      -1.79054748        1 
H      -3.22488504      -1.33108341       1.48926688        1 
H      -2.32815701      -2.86170151       1.23611178        1 
H       4.15829253      -1.15076940      -0.31636632        1 
H       1.94771433       2.43705647       0.53351538        1 
H       2.01316651      -2.39236381      -0.52192287        1 
