24
Lattice="0.0 0.0 0.0 0.0 0.0 0.0 0.0 0.0 0.0" Properties=species:S:1:pos:R:3:Z:I:1 pbc="F F F"
C       0.56487656      -0.64880488       0.10950927        6 
C      -0.81700876      -0.65257901      -0.16683605        6 
C       1.37007625       0.59285229      -0.11140401        6 
C      -1.67089596       0.57907372      -0.27491831        6 
O       2.69640295       0.35815773       0.00372403        8 
O       0.92025165       1.68693459      -0.35703488        8 
O      -1.55497151       1.34816162       0.81776840        8 
O      -2.47917785       0.76299095      -1.15361605        8 
C      -2.31054992       2.57204219       0.80732656        6 
C       3.55348810       1.49516746      -0.19928015        6 
C       1.20821830      -1.86800865       0.35846963        6 
C       0.49947963      -3.06573345       0.35720637        6 
C      -0.85923853      -3.06643996       0.05261277        6 
C      -1.50985858      -1.86361153      -0.20890401        6 
H      -1.95832706       3.21791040       0.00151098        1 
H       3.43070284       1.88839038      -1.20963938        1 
H      -1.41413722      -3.99728515       0.02244139        1 
H      -3.37370164       2.36709491       0.67295936        1 
H      -2.12532051       3.03355707       1.77448788        1 
H       4.56505322       1.12310001      -0.05295356        1 
H       3.32265417       2.28044649       0.52190838        1 
H       1.01328544      -3.99669735       0.56721453        1 
H      -2.56964547      -1.85004170      -0.43291754        1 
H       2.27488393      -1.86997137       0.53431583        1 
