24
Lattice="0.0 0.0 0.0 0.0 0.0 0.0 0.0 0.0 0.0" Properties=species:S:1:pos:R:3:Z:I:1 pbc="F F F"
C       0.77012043      -0.67443302       0.12990937        6 
C       0.86011417       0.71892265      -0.02181185        6 
C      -0.53514950      -1.40725692       0.24960470        6 
C      -0.32888794       1.62246599      -0.05186664        6 
O      -1.23028807      -1.34762027      -0.90290549        8 
O      -0.89596151      -2.00936502       1.22917393        8 
O      -1.37706410       1.10114953       0.61521267        8 
O      -0.34963940       2.70636295      -0.58632072        8 
C      -2.59612424       1.86400201       0.59217665        6 
C      -2.52418518      -1.97941102      -0.89092928        6 
C       1.93532726      -1.44065719       0.17921822        6 
C       3.18277887      -0.83718359       0.05000373        6 
C       3.27365625       0.54279428      -0.12517316        6 
C       2.11747594       1.31384018      -0.16108403        6 
H      -2.43981560       2.84575199       1.04074401        1 
H      -2.42819645      -3.04561900      -0.68102989        1 
H       4.24247579       1.01708492      -0.22808180        1 
H      -2.94584208       1.98727026      -0.43412514        1 
H      -3.30784345       1.28494662       1.17637600        1 
H      -2.93287226      -1.81976624      -1.88616938        1 
H      -3.16180584      -1.52026158      -0.13349463        1 
H       4.07990764      -1.44443965       0.08404283        1 
H       2.16782372       2.38745557      -0.29258555        1 
H       1.85636922      -2.51322175       0.31230250        1 
