24
Lattice="0.0 0.0 0.0 0.0 0.0 0.0 0.0 0.0 0.0" Properties=species:S:1:pos:R:3:Z:I:1 pbc="F F F"
C       0.70919882       0.63365638       0.06847799        6 
C      -0.68408854       0.66454436      -0.09965044        6 
C       1.40117858      -0.67881415       0.24733308        6 
C      -1.46142828      -0.59467467      -0.34859180        6 
O       2.63437092      -0.68043275      -0.29413378        8 
O       0.92728674      -1.61911192       0.83948018        8 
O      -2.49462499      -0.71368718       0.50457981        8 
O      -1.22956843      -1.36662562      -1.24586832        8 
C      -3.31909242      -1.88354715       0.32912941        6 
C       3.37684649      -1.90710936      -0.14874797        6 
C       1.41954668       1.83185846       0.15961275        6 
C       0.74977076       3.05222518       0.10793521        6 
C      -0.63480383       3.08070098      -0.04091801        6 
C      -1.34933437       1.88886453      -0.14170739        6 
H      -3.79550902      -1.86995980      -0.65257260        1 
H       3.54022448      -2.13116445       0.90656407        1 
H      -1.16019111       4.02791233      -0.08070028        1 
H      -2.71492032      -2.78631102       0.42528950        1 
H      -4.06419560      -1.83177495       1.11967533        1 
H       4.32212016      -1.73396173      -0.65775279        1 
H       2.83401267      -2.73221016      -0.61165353        1 
H       1.30850787       3.97727692       0.18856706        1 
H      -2.42534123       1.90405233      -0.26580419        1 
H       2.49401905       1.79896831       0.28615393        1 
