24
Lattice="0.0 0.0 0.0 0.0 0.0 0.0 0.0 0.0 0.0" Properties=species:S:1:pos:R:3:Z:I:1 pbc="F F F"
C       0.72293463       0.59337182       0.04701573        6 
C      -0.68426605       0.63732928       0.04515961        6 
C       1.42382929      -0.71532793      -0.13022029        6 
C      -1.52262783      -0.57553512       0.33516477        6 
O       2.75100314      -0.61937913       0.10205545        8 
O       0.88358222      -1.74675439      -0.45001595        8 
O      -2.52059951      -0.70796202      -0.56102412        8 
O      -1.36442860      -1.29918631       1.28468948        8 
C      -3.40482327      -1.82576766      -0.34928578        6 
C       3.50026607      -1.83721752      -0.06118137        6 
C       1.44318617       1.79065133       0.00887308        6 
C       0.78402962       3.01716083      -0.02573599        6 
C      -0.60690550       3.05626663      -0.05405059        6 
C      -1.33552779       1.86902289      -0.01686876        6 
H      -2.84050939      -2.75897199      -0.36049677        1 
H       3.12721458      -2.60602696       0.61692139        1 
H      -1.12711622       4.00615603      -0.09902628        1 
H      -3.92174703      -1.72809151       0.60692201        1 
H      -4.11338668      -1.79365188      -1.17396756        1 
H       4.52881158      -1.57799373       0.17955051        1 
H       3.42386407      -2.19765256      -1.08837597        1 
H       1.35731300       3.93645417      -0.04824100        1 
H      -2.41838889       1.89285131      -0.01659508        1 
H       2.52360886       1.74922224      -0.01581734        1 
