24
Lattice="0.0 0.0 0.0 0.0 0.0 0.0 0.0 0.0 0.0" Properties=species:S:1:pos:R:3:Z:I:1 pbc="F F F"
C       0.86539697      -0.68505262      -0.14877191        6 
C       0.71535834       0.68153766       0.13007855        6 
C      -0.23742146      -1.67818696       0.05628975        6 
C      -0.62150960       1.32450360       0.37564720        6 
O      -1.41797644      -1.26261467      -0.43936795        8 
O      -0.09496429      -2.71444856       0.66048977        8 
O      -1.25548555       1.57910520      -0.77975767        8 
O      -1.02949038       1.65874933       1.46140961        8 
C      -2.56026373       2.17707077      -0.66617575        6 
C      -2.55204362      -2.11015904      -0.17004654        6 
C       2.14292835      -1.19905642      -0.39450541        6 
C       3.25082637      -0.36135852      -0.42134906        6 
C       3.09918793       0.99565885      -0.13928209        6 
C       1.83780914       1.51123270       0.14269472        6 
H      -3.23429480       1.50841452      -0.12762241        1 
H      -2.38964943      -3.10708967      -0.58131334        1 
H       3.96164227       1.65188038      -0.13410166        1 
H      -2.50253282       3.13022439      -0.13896655        1 
H      -2.90102703       2.32135464      -1.68876594        1 
H      -3.39469972      -1.62603166      -0.65866382        1 
H      -2.72058459      -2.18588223       0.90523494        1 
H       4.23156367      -0.76900415      -0.63639031        1 
H       1.71591611       2.56328901       0.37223745        1 
H       2.25319995      -2.26542475      -0.54991619        1 
