24
Lattice="0.0 0.0 0.0 0.0 0.0 0.0 0.0 0.0 0.0" Properties=species:S:1:pos:R:3:Z:I:1 pbc="F F F"
C       0.58342393       0.65594831      -0.11290449        6 
C      -0.81216855       0.83244020      -0.25940094        6 
C       1.30870052      -0.61718810      -0.44414612        6 
C      -1.85455600      -0.24790133      -0.12414128        6 
O       2.36581904      -0.80643004       0.38067306        8 
O       1.03010577      -1.36639370      -1.34434234        8 
O      -1.36135678      -1.49059418      -0.13236445        8 
O      -3.02158003      -0.00485325       0.09478476        8 
C      -2.30414827      -2.55500033       0.08264718        6 
C       3.17356964      -1.96402726       0.10021854        6 
C       1.39122620       1.78250490       0.08356909        6 
C       0.85350275       3.06637822       0.09420869        6 
C      -0.51287183       3.24305931      -0.09769090        6 
C      -1.33359979       2.13022210      -0.24033939        6 
H      -2.76390051      -2.46495295       1.06831754        1 
H       2.57180520      -2.87195607       0.16244773        1 
H      -0.94408574       4.23732010      -0.10458826        1 
H      -3.08316409      -2.53453771      -0.68064129        1 
H      -1.72105018      -3.47016802       0.00960032        1 
H       3.95109216      -1.96594570       0.86091812        1 
H       3.61028178      -1.89345580      -0.89745500        1 
H       1.50374193       3.92138997       0.23899767        1 
H      -2.40829080       2.24121002      -0.30427956        1 
H       2.45779216       1.64144762       0.19949533        1 
