24
Lattice="0.0 0.0 0.0 0.0 0.0 0.0 0.0 0.0 0.0" Properties=species:S:1:pos:R:3:Z:I:1 pbc="F F F"
C       0.89779166       0.65736265       0.07353794        6 
C      -0.50373023       0.74420334       0.02021168        6 
C       1.61247438      -0.65487268       0.24272388        6 
C      -1.33111349      -0.48937714       0.16554782        6 
O       1.54282400      -1.38928709      -0.88028153        8 
O       2.20488470      -0.97857514       1.24071215        8 
O      -2.61445960      -0.28857010      -0.20104158        8 
O      -0.92332174      -1.55009291       0.57983118        8 
C      -3.49622605      -1.41691785      -0.05252888        6 
C       2.03576765      -2.73943226      -0.77957456        6 
C       1.66485173       1.81882694       0.00411201        6 
C       1.05154775       3.06065484      -0.14295702        6 
C      -0.33753743       3.14943481      -0.21196936        6 
C      -1.11021259       1.99645228      -0.12952466        6 
H      -3.15531088      -2.24995491      -0.66881958        1 
H       3.09744334      -2.74499702      -0.52880920        1 
H      -0.81832923       4.11425233      -0.32311578        1 
H      -3.53703014      -1.73438101       0.99050035        1 
H      -4.47030093      -1.06637037      -0.38634395        1 
H       1.87026600      -3.18026631      -1.76006271        1 
H       1.47294332      -3.27659769      -0.01495482        1 
H       1.65867055       3.95664341      -0.20128910        1 
H      -2.18946919       2.05521821      -0.17138305        1 
H       2.74409801       1.74410432       0.06387260        1 
