24
Lattice="0.0 0.0 0.0 0.0 0.0 0.0 0.0 0.0 0.0" Properties=species:S:1:pos:R:3:Z:I:1 pbc="F F F"
C       0.68221825       0.55289141       0.03807868        6 
C      -0.72232320       0.51081333      -0.13494983        6 
C       1.57704937      -0.62064768      -0.24906968        6 
C      -1.49449221      -0.76678056       0.04835800        6 
O       2.68827824      -0.58992767       0.52428498        8 
O       1.36621831      -1.46983299      -1.07382312        8 
O      -2.83266657      -0.53723659       0.04208838        8 
O      -1.03126910      -1.87085471       0.17666725        8 
C      -3.66441735      -1.69929712       0.19910874        6 
C       3.62786740      -1.65624244       0.29602662        6 
C       1.31203457       1.79253237       0.18262064        6 
C       0.58866542       2.98203519       0.13301120        6 
C      -0.78414350       2.94422910      -0.08115825        6 
C      -1.43156500       1.71608884      -0.18328016        6 
H      -3.48735942      -2.40753817      -0.61167672        1 
H       3.15752637      -2.62168884       0.48828866        1 
H      -1.35760392       3.86196712      -0.14079592        1 
H      -3.46220769      -2.18977367       1.15266129        1 
H      -4.68676007      -1.32813059       0.16900561        1 
H       4.44245860      -1.47902179       0.99479094        1 
H       3.99003064      -1.63352037      -0.73321273        1 
H       1.10233163       3.92999948       0.24430989        1 
H      -2.50748770       1.67958584      -0.27738261        1 
H       2.38666584       1.81624633       0.30601433        1 
