24
Lattice="0.0 0.0 0.0 0.0 0.0 0.0 0.0 0.0 0.0" Properties=species:S:1:pos:R:3:Z:I:1 pbc="F F F"
C       0.90150591      -0.71020086       0.06730778        6 
C       0.70035869       0.67938270       0.12011839        6 
C      -0.20335787      -1.71331710      -0.03579523        6 
C      -0.64504965       1.31601939       0.34316531        6 
O      -1.40051043      -1.20674470       0.30886652        8 
O      -0.05047665      -2.84892108      -0.42371930        8 
O      -1.21084207       1.68069574      -0.82275570        8 
O      -1.13488530       1.50718464       1.42613504        8 
C      -2.51712872       2.28189094      -0.72664642        6 
C      -2.53249114      -2.08568895       0.18441687        6 
C       2.20483309      -1.21145655      -0.03028483        6 
C       3.29790614      -0.35546706      -0.05076044        6 
C       3.09505826       1.02290125      -0.00439594        6 
C       1.80346535       1.53414117       0.08051338        6 
H      -3.22493426       1.57234832      -0.29477395        1 
H      -2.65998556      -2.39653230      -0.85369437        1 
H       3.94039695       1.70079999      -0.03153392        1 
H      -2.48219450       3.17811123      -0.10601249        1 
H      -2.79718925       2.53038164      -1.74773357        1 
H      -3.38649863      -1.50220944       0.52101227        1 
H      -2.40046157      -2.96789294       0.81200789        1 
H       4.30132788      -0.75958575      -0.11417644        1 
H       1.64603979       2.60548368       0.12469132        1 
H       2.33416508      -2.28410690      -0.10135747        1 
