24
Lattice="0.0 0.0 0.0 0.0 0.0 0.0 0.0 0.0 0.0" Properties=species:S:1:pos:R:3:Z:I:1 pbc="F F F"
C       0.83339177      -0.68939984       0.10549098        6 
C       0.74746055       0.69345595      -0.13888848        6 
C      -0.32722179      -1.63286029       0.05294023        6 
C      -0.54569941       1.45043253      -0.22209537        6 
O      -1.43821175      -1.06494472      -0.45337789        8 
O      -0.26145205      -2.80407007       0.34853218        8 
O      -1.24212240       1.34587294       0.92499843        8 
O      -0.87803939       2.13634040      -1.15705246        8 
C      -2.52315867       2.00024337       0.94367734        6 
C      -2.59061099      -1.91619900      -0.58011164        6 
C       2.09232753      -1.27693588       0.26765831        6 
C       3.25099628      -0.51370056       0.18680394        6 
C       3.16344579       0.84974247      -0.08665066        6 
C       1.91638361       1.44704088      -0.25055862        6 
H      -2.41214720       3.06966667       0.75891171        1 
H      -2.36598326      -2.76882864      -1.22217463        1 
H       4.06246102       1.44925267      -0.17059259        1 
H      -3.17654085       1.57081000       0.18177944        1 
H      -2.92519908       1.82170440       1.93835429        1 
H      -3.36097523      -1.29226894      -1.02774697        1 
H      -2.90612025      -2.27647087       0.40035525        1 
H       4.21790285      -0.98514777       0.31817141        1 
H       1.83780590       2.50767426      -0.45661521        1 
H       2.13882094      -2.34524477       0.43821137        1 
