24
Lattice="0.0 0.0 0.0 0.0 0.0 0.0 0.0 0.0 0.0" Properties=species:S:1:pos:R:3:Z:I:1 pbc="F F F"
C       0.73365951      -0.67645631       0.18228988        6 
C       0.79343979       0.69114944      -0.15744026        6 
C      -0.51528970      -1.50827500       0.19489399        6 
C      -0.35874817       1.64617524      -0.05148029        6 
O      -1.27966976      -1.26616172      -0.88566543        8 
O      -0.73373223      -2.39622885       0.98477337        8 
O      -1.47352365       1.07747497       0.44220375        8 
O      -0.26673855       2.83461096      -0.26102359        8 
C      -2.59547237       1.95153058       0.65432268        6 
C      -2.50172703      -2.01800724      -0.97472240        6 
C       1.91799883      -1.39841189       0.34310089        6 
C       3.15509177      -0.79601984       0.13282814        6 
C       3.21616883       0.54258932      -0.24568764        6 
C       2.04375532       1.28189287      -0.36406231        6 
H      -2.34011838       2.73355215       1.37081446        1 
H      -2.29510060      -3.08880702      -1.00698987        1 
H       4.17368762       1.01829460      -0.42255332        1 
H      -2.90335672       2.41116510      -0.28593657        1 
H      -3.38479327       1.31460399       1.04763805        1 
H      -2.97547633      -1.69089317      -1.89756610        1 
H      -3.14160814      -1.80185629      -0.11708387        1 
H       4.06376749      -1.37425797       0.25469388        1 
H       2.07549554       2.34053533      -0.58829002        1 
H       1.85124026      -2.44597625       0.61002755        1 
