24
Lattice="0.0 0.0 0.0 0.0 0.0 0.0 0.0 0.0 0.0" Properties=species:S:1:pos:R:3:Z:I:1 pbc="F F F"
C       0.83132667       0.71591738      -0.09140178        6 
C      -0.56946558       0.69345160       0.02234570        6 
C       1.64840656      -0.53387946      -0.26888270        6 
C      -1.30400912      -0.59864613      -0.11377006        6 
O       1.71457093      -1.23685071       0.87313426        8 
O       2.22268059      -0.82312211      -1.28862744        8 
O      -2.62593987      -0.46262291       0.12255136        8 
O      -0.79533211      -1.65583603      -0.40909216        8 
C      -3.41757578      -1.65692903      -0.01378901        6 
C       2.33313192      -2.53453288       0.77321435        6 
C       1.50725812       1.93431576      -0.05888266        6 
C       0.80635297       3.12586842       0.10889645        6 
C      -0.58116196       3.10700011       0.23802713        6 
C      -1.26447830       1.89722150       0.18792261        6 
H      -3.35026093      -2.04460304      -1.03140048        1 
H       1.77021234      -3.15202535       0.07184033        1 
H      -1.13077399       4.03210223       0.36671728        1 
H      -3.07781748      -2.42156865       0.68617207        1 
H      -4.43680212      -1.35342809       0.21488462        1 
H       2.28801613      -2.95299308       1.77619119        1 
H       3.36706979      -2.44359681       0.43829763        1 
H       1.34397859       4.06661034       0.13635680        1 
H      -2.34271837       1.87346974       0.26737675        1 
H       2.58539753       1.94359120      -0.16546034        1 
