24
Lattice="0.0 0.0 0.0 0.0 0.0 0.0 0.0 0.0 0.0" Properties=species:S:1:pos:R:3:Z:I:1 pbc="F F F"
C      -0.32482424      -0.82725233      -0.05382352        6 
C      -1.07841713       0.35733749      -0.01602392        6 
C       1.15123846      -0.78242550      -0.27802362        6 
C      -0.45158725       1.71417305      -0.12481967        6 
O       1.78256134      -1.78329444       0.36888322        8 
O       1.71581888       0.01372909      -0.99019779        8 
O       0.47654848       1.90192679       0.83013741        8 
O      -0.76608580       2.54095043      -0.94421066        8 
C       1.25162081       3.11042075       0.72116909        6 
C       3.20248188      -1.87632427       0.15096565        6 
C      -0.97639343      -2.06021343       0.05621109        6 
C      -2.36156202      -2.12000955       0.17785646        6 
C      -3.10887255      -0.94409827       0.19523169        6 
C      -2.46798344       0.28789829       0.09244042        6 
H       1.82027923       3.09747161      -0.20984268        1 
H       3.41443527      -2.06002292      -0.90359678        1 
H      -4.18825825      -0.98489668       0.28643020        1 
H       0.60277226       3.98671526       0.74336582        1 
H       1.91943101       3.10392044       1.57963417        1 
H       3.53348321      -2.71380077       0.76089403        1 
H       3.69583903      -0.95459885       0.46177210        1 
H      -2.85545238      -3.08195907       0.25316933        1 
H      -3.04143916       1.20695901       0.10034240        1 
H      -0.39078039      -2.97009004       0.03178102        1 
