24
Lattice="0.0 0.0 0.0 0.0 0.0 0.0 0.0 0.0 0.0" Properties=species:S:1:pos:R:3:Z:I:1 pbc="F F F"
C       0.69058164       0.65677074       0.04303813        6 
C      -0.71453280       0.58132626       0.10605735        6 
C       1.57355094      -0.52457065       0.33678972        6 
C      -1.39792068      -0.74311640      -0.03012268        6 
O       2.45254243      -0.74217951      -0.66075747        8 
O       1.53179334      -1.16182949       1.35675021        8 
O      -2.74477904      -0.61784284      -0.04543367        8 
O      -0.84050451      -1.81071819      -0.11389833        8 
C      -3.48648369      -1.84362790      -0.17796785        6 
C       3.34289912      -1.86035813      -0.47064113        6 
C       1.30734935       1.90229434      -0.07621447        6 
C       0.54969956       3.07140205      -0.10634575        6 
C      -0.83746244       3.00234199      -0.01330551        6 
C      -1.46363483       1.76244941       0.06896627        6 
H      -3.23633869      -2.34170751      -1.11597411        1 
H       3.96206048      -1.70975940       0.41508179        1 
H      -1.43322587       3.90744417      -0.02925095        1 
H      -3.26651575      -2.51409318       0.65399994        1 
H      -4.53363065      -1.54902732      -0.16784489        1 
H       3.95619319      -1.89649483      -1.36813278        1 
H       2.76816407      -2.78049939      -0.35736681        1 
H       1.04482885       4.03168186      -0.19366635        1 
H      -2.54270067       1.69602680       0.08665018        1 
H       2.38821528       1.95242561      -0.12640392        1 
