24
Lattice="0.0 0.0 0.0 0.0 0.0 0.0 0.0 0.0 0.0" Properties=species:S:1:pos:R:3:Z:I:1 pbc="F F F"
C      -0.57457062      -0.67522672       0.08600093        6 
C      -0.92067600       0.68887078       0.10565237        6 
C       0.80807800      -1.21152273       0.33738426        6 
C       0.05839748       1.81422903      -0.02859211        6 
O       1.26708244      -1.87821148      -0.74173557        8 
O       1.40056340      -1.12717659       1.38144699        8 
O       1.32841118       1.43281581       0.17479204        8 
O      -0.25315303       2.93592317      -0.35988020        8 
C       2.33736496       2.44288761       0.00569265        6 
C       2.55398505      -2.50756996      -0.59002619        6 
C      -1.58562945      -1.63646529      -0.01245651        6 
C      -2.92622357      -1.26636785      -0.05693774        6 
C      -3.27257982       0.08216661      -0.01323307        6 
C      -2.27357774       1.04621541       0.04270421        6 
H       2.33671540       2.81303762      -1.02086137        1 
H       3.31762131      -1.75963693      -0.37197632        1 
H      -4.31344829       0.38248359      -0.04560050        1 
H       2.16067242       3.27444908       0.68894495        1 
H       3.27754901       1.94856492       0.23909118        1 
H       2.75230949      -2.99303712      -1.54282871        1 
H       2.52794857      -3.24013703       0.21835766        1 
H      -3.69406305      -2.02885727      -0.12377307        1 
H      -2.52055126       2.10001000       0.01755910        1 
H      -1.31397643      -2.68517852      -0.03941142        1 
