24
Lattice="0.0 0.0 0.0 0.0 0.0 0.0 0.0 0.0 0.0" Properties=species:S:1:pos:R:3:Z:I:1 pbc="F F F"
C       0.75174086      -0.50557740       0.23625283        6 
C       0.66875381       0.85216000      -0.10022170        6 
C      -0.47086540      -1.37109806       0.35504031        6 
C      -0.64341678       1.52221569      -0.39111417        6 
O      -0.48892415      -2.29242248      -0.63103233        8 
O      -1.30588257      -1.30170251       1.22136246        8 
O      -1.38964133       1.65730085       0.71249281        8 
O      -0.97528872       1.90077106      -1.48967308        8 
C      -2.70598087       2.21511018       0.53116757        6 
C      -1.58968206      -3.22379523      -0.60683805        6 
C       2.00489937      -1.10004679       0.40123804        6 
C       3.16551616      -0.34343335       0.27836680        6 
C       3.08248727       1.00678505      -0.05732546        6 
C       1.83890853       1.59541805      -0.26393773        6 
H      -2.63799013       3.23934474       0.16156761        1 
H      -1.57102637      -3.81076587       0.31277126        1 
H       3.98411673       1.59715397      -0.17081424        1 
H      -3.27737606       1.61196841      -0.17566762        1 
H      -3.16512060       2.18829180       1.51627336        1 
H      -1.44431743      -3.86271199      -1.47475042        1 
H      -2.53946016      -2.69180741      -0.67538945        1 
H       4.13156405      -0.81137896       0.42781621        1 
H       1.76616552       2.63569866      -0.55802187        1 
H       2.06517975      -2.15890986       0.62335793        1 
