24
Lattice="0.0 0.0 0.0 0.0 0.0 0.0 0.0 0.0 0.0" Properties=species:S:1:pos:R:3:Z:I:1 pbc="F F F"
C       0.72979508      -0.67683543       0.17028104        6 
C       0.81284645       0.69498229      -0.13926909        6 
C      -0.54444341      -1.46843674       0.22298956        6 
C      -0.33318336       1.65590765      -0.04526451        6 
O      -1.25763840      -1.31939910      -0.90836524        8 
O      -0.82809870      -2.24715629       1.10103939        8 
O      -1.47061366       1.07895219       0.38419774        8 
O      -0.22894895       2.84770624      -0.22662435        8 
C      -2.59681104       1.95210321       0.57789746        6 
C      -2.50252572      -2.03688482      -0.96715132        6 
C       1.89995819      -1.42566816       0.30735915        6 
C       3.14648468      -0.84162990       0.10149971        6 
C       3.23114799       0.50575216      -0.24134470        6 
C       2.07273508       1.26910817      -0.33716080        6 
H      -2.36221430       2.71771188       1.31860973        1 
H      -2.33521087      -3.10944243      -0.85779501        1 
H       4.19688702       0.96756399      -0.40988776        1 
H      -2.87222376       2.43218546      -0.36222634        1 
H      -3.40028656       1.30997484       0.93193110        1 
H      -2.92039739      -1.81103469      -1.94562026        1 
H      -3.17276984      -1.69620373      -0.17559262        1 
H       4.04489166      -1.43942174       0.20344526        1 
H       2.12237976       2.33115241      -0.54129559        1 
H       1.81780543      -2.47636326       0.55793502        1 
