24
Lattice="0.0 0.0 0.0 0.0 0.0 0.0 0.0 0.0 0.0" Properties=species:S:1:pos:R:3:Z:I:1 pbc="F F F"
C       0.94576589       0.58672177       0.02496384        6 
C      -0.44023500       0.79666802       0.10148931        6 
C       1.54556724      -0.77884462       0.22277810        6 
C      -1.35977754      -0.37365111       0.21774437        6 
O       1.43082495      -1.52602813      -0.88912512        8 
O       2.05194086      -1.14920655       1.25009176        8 
O      -2.57340595      -0.11415065      -0.31313558        8 
O      -1.08013114      -1.42412535       0.74701630        8 
C      -3.54620403      -1.17042976      -0.20411258        6 
C       1.80714730      -2.91164613      -0.75436398        6 
C       1.80173787       1.67742528      -0.11945395        6 
C       1.28767449       2.96857576      -0.20650020        6 
C      -0.08854050       3.17954282      -0.13646834        6 
C      -0.94866128       2.09611458       0.00373602        6 
H      -3.19813197      -2.06237733      -0.72688329        1 
H       2.85865653      -2.99974390      -0.47785040        1 
H      -0.49046580       4.18413056      -0.19667058        1 
H      -3.72754745      -1.41541235       0.84342804        1 
H      -4.44815065      -0.78049341      -0.67045519        1 
H       1.62816560      -3.35531469      -1.73114030        1 
H       1.18614002      -3.38601312       0.00672371        1 
H       1.96217470       3.80906745      -0.32229905        1 
H      -2.01961787       2.24515693       0.04256675        1 
H       2.87169991       1.51095187      -0.15895025        1 
