24
Lattice="0.0 0.0 0.0 0.0 0.0 0.0 0.0 0.0 0.0" Properties=species:S:1:pos:R:3:Z:I:1 pbc="F F F"
C      -0.68206234      -0.66820728      -0.14392330        6 
C      -0.85344567       0.68871602       0.18051421        6 
C       0.64775748      -1.34390854      -0.32964324        6 
C       0.22655640       1.71604381       0.04907034        6 
O       1.27385295      -1.50791246       0.84755452        8 
O       1.03747554      -1.80579486      -1.37437032        8 
O       1.46457464       1.19703883       0.13684280        8 
O       0.01318242       2.88171181      -0.19236884        8 
C       2.55217518       2.10204710      -0.12527699        6 
C       2.54783618      -2.17393053       0.79256625        6 
C      -1.80010168      -1.50136871      -0.23639192        6 
C      -3.07648876      -1.01137705       0.02173387        6 
C      -3.24877980       0.32875018       0.36395780        6 
C      -2.14701634       1.17374906       0.41332893        6 
H       2.47447278       2.50453012      -1.13622069        1 
H       2.43416443      -3.18786269       0.40587772        1 
H      -4.23953335       0.71840142       0.56659746        1 
H       2.54577657       2.92289541       0.59275800        1 
H       3.45499174       1.50500392      -0.01819523        1 
H       2.90847932      -2.19219716       1.81851389        1 
H       3.23674476      -1.62106522       0.15179604        1 
H      -3.93174455      -1.67403859      -0.04628340        1 
H      -2.27085336       2.23077085       0.61240647        1 
H      -1.66024578      -2.54183693      -0.50511025        1 
