24
Lattice="0.0 0.0 0.0 0.0 0.0 0.0 0.0 0.0 0.0" Properties=species:S:1:pos:R:3:Z:I:1 pbc="F F F"
C       0.70322342      -0.64969033       0.17958004        6 
C      -0.69508555      -0.68418711       0.10687408        6 
C       1.44623766       0.63979089       0.36495657        6 
C      -1.54529480       0.53694369       0.31927601        6 
O       2.24093616       0.88331665      -0.69999658        8 
O       1.39209347       1.34767165       1.33780078        8 
O      -2.05838886       0.96964147      -0.85231048        8 
O      -1.77420059       1.04556731       1.38490535        8 
C      -2.94167378       2.10735421      -0.76981169        6 
C       3.05665556       2.06913492      -0.61571282        6 
C       1.42962374      -1.83193465       0.00987443        6 
C       0.77449501      -3.04415500      -0.18338069        6 
C      -0.61671940      -3.07731685      -0.25683416        6 
C      -1.34498753      -1.89917551      -0.12542454        6 
H      -3.81581120       1.86562514      -0.16299901        1 
H       2.42929904       2.95516676      -0.50877247        1 
H      -1.13403139      -4.01546354      -0.42227202        1 
H      -2.42349362       2.95972995      -0.32865247        1 
H      -3.23277403       2.32039046      -1.79573231        1 
H       3.61328656       2.10202959      -1.54935156        1 
H       3.73415189       2.00488418       0.23710750        1 
H       1.34884661      -3.95689422      -0.29196393        1 
H      -2.42639629      -1.91885938      -0.19629026        1 
H       2.51202102      -1.79648678       0.03225634        1 
