24
Lattice="0.0 0.0 0.0 0.0 0.0 0.0 0.0 0.0 0.0" Properties=species:S:1:pos:R:3:Z:I:1 pbc="F F F"
C       0.70889274       0.62005073       0.04897786        6 
C      -0.69250761       0.71325578       0.08357968        6 
C       1.34610733      -0.72749619      -0.01182618        6 
C      -1.57618324      -0.47502469       0.35685116        6 
O       2.69371200      -0.66182354      -0.03603576        8 
O       0.73818071      -1.77286511      -0.03423472        8 
O      -2.23694919      -0.85852846      -0.74877646        8 
O      -1.72134785      -0.96558983       1.44705151        8 
C      -3.09401398      -2.00852770      -0.59717602        6 
C       3.37933066      -1.92641499      -0.09296259        6 
C       1.47197162       1.78873910      -0.05279528        6 
C       0.85435954       3.03352704      -0.11441793        6 
C      -0.53621282       3.12037411      -0.09561587        6 
C      -1.30456988       1.96332415       0.00407828        6 
H      -2.50693965      -2.86954411      -0.27555363        1 
H       3.13333595      -2.53210142       0.78046468        1 
H      -1.02384876       4.08670080      -0.15487666        1 
H      -3.87670013      -1.80714745       0.13574618        1 
H      -3.52308355      -2.17967291      -1.58181490        1 
H       4.43850986      -1.67967324      -0.10379627        1 
H       3.10088365      -2.47054362      -0.99667326        1 
H       1.45608639       3.93160229      -0.18904111        1 
H      -2.38597052       2.02858745       0.03302391        1 
H       2.54951915       1.70760807      -0.09528729        1 
