24
Lattice="0.0 0.0 0.0 0.0 0.0 0.0 0.0 0.0 0.0" Properties=species:S:1:pos:R:3:Z:I:1 pbc="F F F"
C       0.66566261       0.61216323      -0.10911682        6 
C      -0.70206187       0.76456922       0.16883767        6 
C       1.27183137      -0.75098138      -0.06625350        6 
C      -1.61419227      -0.41009974       0.40353014        6 
O       2.60103103      -0.70982325       0.15967193        8 
O       0.66334522      -1.78279035      -0.23451610        8 
O      -2.07487949      -0.89851394      -0.75698392        8 
O      -1.95497196      -0.79426490       1.49481391        8 
C      -2.87823437      -2.09058508      -0.66383178        6 
C       3.26700109      -1.98591382       0.20343676        6 
C       1.45367466       1.74779960      -0.32671689        6 
C       0.88347317       3.01602425      -0.30404262        6 
C      -0.47398410       3.16282769      -0.02348435        6 
C      -1.26164453       2.04013612       0.21635588        6 
H      -2.29060349      -2.89480203      -0.21900417        1 
H       2.84671861      -2.60525559       0.99692169        1 
H      -0.92090849       4.14986679       0.00915643        1 
H      -3.76959979      -1.90976449      -0.06116124        1 
H      -3.14925335      -2.33568248      -1.68818919        1 
H       4.31124863      -1.75894917       0.40538146        1 
H       3.16176588      -2.50455304      -0.75078356        1 
H       1.49891029       3.88816141      -0.49081077        1 
H      -2.31663645       2.14975422       0.43893494        1 
H       2.51190041       1.62418561      -0.51413503        1 
