24
Lattice="0.0 0.0 0.0 0.0 0.0 0.0 0.0 0.0 0.0" Properties=species:S:1:pos:R:3:Z:I:1 pbc="F F F"
C       1.01143837      -0.53942206       0.05752804        6 
C       0.47412149       0.76056977       0.05370152        6 
C       0.18688663      -1.78848183       0.01751807        6 
C      -0.96732978       1.03069740       0.36879956        6 
O      -1.05620124      -1.56499308      -0.44477149        8 
O       0.61266298      -2.88959823       0.27917770        8 
O      -1.51751410       1.87133383      -0.52999929        8 
O      -1.54941167       0.60138376       1.33350245        8 
C      -2.89202768       2.23069870      -0.29149398        6 
C      -1.93833647      -2.70024099      -0.48225685        6 
C       2.39450650      -0.71102563      -0.03869922        6 
C       3.24217033       0.38668115      -0.14517821        6 
C       2.70704613       1.67209556      -0.17590857        6 
C       1.32974310       1.85579715      -0.07688656        6 
H      -3.52039776       1.33887279      -0.28811876        1 
H      -1.53312372      -3.47785096      -1.13129565        1 
H       3.35849757       2.53319347      -0.27034365        1 
H      -2.99351476       2.74419700       0.66590039        1 
H      -3.16519895       2.88945670      -1.11266203        1 
H      -2.87869535      -2.32144785      -0.87627004        1 
H      -2.07866542      -3.10212291       0.52215302        1 
H       4.31309207       0.23756150      -0.21717022        1 
H       0.91090512       2.85445567      -0.08212336        1 
H       2.78448628      -1.72123005      -0.04533500        1 
