24
Lattice="0.0 0.0 0.0 0.0 0.0 0.0 0.0 0.0 0.0" Properties=species:S:1:pos:R:3:Z:I:1 pbc="F F F"
C       0.89704371      -0.72455324       0.10235666        6 
C       0.67887288       0.66385193       0.13039842        6 
C      -0.19013345      -1.74084686      -0.06672888        6 
C      -0.66820436       1.29455086       0.35960917        6 
O      -1.38473005      -1.31228847       0.37248694        8 
O      -0.02305502      -2.81541902      -0.59717049        8 
O      -1.15706903       1.81937008      -0.78202567        8 
O      -1.22550900       1.35330653       1.42433685        8 
C      -2.44655666       2.45527513      -0.68030552        6 
C      -2.50103535      -2.19684850       0.16935911        6 
C       2.20782439      -1.20935583       0.02391592        6 
C       3.29160857      -0.34136623       0.00955533        6 
C       3.07191150       1.03491419       0.02250679        6 
C       1.77298925       1.53060961       0.07752939        6 
H      -3.19690864       1.73434429      -0.35204664        1 
H      -2.64806271      -2.38663837      -0.89512872        1 
H       3.90903224       1.72267452      -0.00950738        1 
H      -2.41055637       3.28460339       0.02758124        1 
H      -2.67125659       2.81422018      -1.68209638        1 
H      -3.35770854      -1.67631121       0.59156863        1 
H      -2.33556762      -3.14376846       0.68480759        1 
H       4.30031095      -0.73512950      -0.03175569        1 
H       1.60124709       2.60052693       0.09076069        1 
H       2.35256377      -2.28025069      -0.04391462        1 
