24
Lattice="0.0 0.0 0.0 0.0 0.0 0.0 0.0 0.0 0.0" Properties=species:S:1:pos:R:3:Z:I:1 pbc="F F F"
C       0.72710723       0.55538103      -0.16511175        6 
C      -0.67717880       0.59628874      -0.08930169        6 
C       1.49232308      -0.73401461      -0.23588366        6 
C      -1.56852157      -0.60224106      -0.26352834        6 
O       2.56827587      -0.68540440       0.58898262        8 
O       1.23730026      -1.68520886      -0.92747700        8 
O      -2.41944283      -0.70950459       0.78583262        8 
O      -1.58032629      -1.34372808      -1.20893180        8 
C      -3.38559447      -1.77518071       0.69851184        6 
C       3.41132242      -1.85265735       0.57818625        6 
C       1.44850631       1.75137454      -0.07339638        6 
C       0.79738218       2.97417126       0.04528712        6 
C      -0.59180197       3.01183782       0.13480965        6 
C      -1.31818554       1.82730837       0.08477430        6 
H      -4.02843285      -1.63532603      -0.17228840        1 
H       2.84696202      -2.73264404       0.89058975        1 
H      -1.10939694       3.95727491       0.24913265        1 
H      -2.88259582      -2.73998072       0.62034093        1 
H      -3.96437491      -1.71592370       1.61753627        1 
H       4.20975998      -1.63829388       1.28499951        1 
H       3.81464540      -2.02407260      -0.42114816        1 
H       1.37425268       3.89054097       0.08792137        1 
H      -2.39742568       1.84812445       0.17162197        1 
H       2.52949317       1.71080149      -0.09300474        1 
