24
Lattice="0.0 0.0 0.0 0.0 0.0 0.0 0.0 0.0 0.0" Properties=species:S:1:pos:R:3:Z:I:1 pbc="F F F"
C       0.73257311      -0.66657054      -0.15182189        6 
C       0.85298968       0.71392944       0.04278557        6 
C      -0.60916018      -1.28989463      -0.41373916        6 
C      -0.31858619       1.61624994      -0.21837722        6 
O      -1.13808275      -1.78703472       0.71900346        8 
O      -1.13263409      -1.37393929      -1.49709776        8 
O      -1.23291967       1.54209434       0.76895464        8 
O      -0.45986196       2.26843727      -1.22118683        8 
C      -2.45550821       2.27739203       0.55328849        6 
C      -2.43233150      -2.40960216       0.59308618        6 
C       1.85801488      -1.48473413      -0.05712424        6 
C       3.10496314      -0.92929065       0.21435930        6 
C       3.22782390       0.44632535       0.40205663        6 
C       2.10757614       1.26656220       0.30142138        6 
H      -2.24675187       3.34235787       0.44484876        1 
H      -3.16140997      -1.69188638       0.21399345        1 
H       4.19686790       0.88224150       0.61468082        1 
H      -2.95806076       1.91528726      -0.34485279        1 
H      -3.06156993       2.09272181       1.43728015        1 
H      -2.69592044      -2.73019934       1.59826380        1 
H      -2.38228965      -3.26353219      -0.08416071        1 
H       3.97679429      -1.56959787       0.28036359        1 
H       2.20306662       2.33979183       0.41738081        1 
H       1.75358422      -2.55437556      -0.19834972        1 
