24
Lattice="0.0 0.0 0.0 0.0 0.0 0.0 0.0 0.0 0.0" Properties=species:S:1:pos:R:3:Z:I:1 pbc="F F F"
C       0.66779075       0.52177763      -0.19153071        6 
C      -0.67162146       0.78883260       0.14978802        6 
C       1.24360217      -0.86508418      -0.14786753        6 
C      -1.74189353      -0.24651145       0.36276571        6 
O       2.47286106      -0.84244440       0.42169662        8 
O       0.73823807      -1.87636289      -0.56648614        8 
O      -1.89384670      -1.03617699      -0.70440972        8 
O      -2.45881245      -0.27302053       1.33692548        8 
C      -2.88484334      -2.07400763      -0.59850009        6 
C       3.14650451      -2.11260422       0.49670796        6 
C       1.53503824       1.59555791      -0.42636455        6 
C       1.08039270       2.90842489      -0.37034196        6 
C      -0.23908502       3.16990096      -0.00901146        6 
C      -1.10171662       2.11378649       0.26254031        6 
H      -2.65832534      -2.72647281       0.24577061        1 
H       2.56468131      -2.81633080       1.09389797        1 
H      -0.59605822       4.19060469       0.06452977        1 
H      -3.87872003      -1.64259271      -0.46748458        1 
H      -2.82194128      -2.62470189      -1.53382478        1 
H       4.10190471      -1.90437773       0.97302469        1 
H       3.29376135      -2.52735565      -0.50168219        1 
H       1.76137120       3.72373005      -0.58469307        1 
H      -2.12718874       2.30270162       0.55563256        1 
H       2.57405964       1.39060947      -0.64791772        1 
