24
Lattice="0.0 0.0 0.0 0.0 0.0 0.0 0.0 0.0 0.0" Properties=species:S:1:pos:R:3:Z:I:1 pbc="F F F"
C      -0.66821932      -0.65857877       0.16979424        6 
C      -0.90446288       0.69682740      -0.08821611        6 
C       0.72594029      -1.15937972       0.41012263        6 
C       0.18948228       1.70147692       0.10835821        6 
O       1.15807207      -1.88712311      -0.63574619        8 
O       1.35633164      -0.99348353       1.42538623        8 
O       1.20369045       1.49862119      -0.75626934        8 
O       0.20197178       2.52898870       0.98378404        8 
C       2.38423091       2.29687817      -0.53775520        6 
C       2.47733773      -2.45201157      -0.50918949        6 
C      -1.72770819      -1.56698200       0.13033369        6 
C      -3.02129487      -1.12522838      -0.13219914        6 
C      -3.26004693       0.22688906      -0.37434470        6 
C      -2.20726879       1.13604779      -0.33463095        6 
H       2.14752048       3.35836451      -0.61947535        1 
H       3.21637527      -1.65977902      -0.38195166        1 
H      -4.26564371       0.57369357      -0.58210775        1 
H       2.79384801       2.09131902       0.45225149        1 
H       3.08254591       1.99781705      -1.31603884        1 
H       2.64940104      -2.99221610      -1.43721681        1 
H       2.52305480      -3.12808814       0.34598041        1 
H      -3.83959749      -1.83591276      -0.15149312        1 
H      -2.38959764       2.19256663      -0.49158136        1 
H      -1.53682340      -2.61884798       0.30807109        1 
