24
Lattice="0.0 0.0 0.0 0.0 0.0 0.0 0.0 0.0 0.0" Properties=species:S:1:pos:R:3:Z:I:1 pbc="F F F"
C       1.07498966       0.18126162      -0.16218627        6 
C      -0.16984167       0.80662097       0.08320552        6 
C       1.32340389      -1.30131573      -0.11136180        6 
C      -1.47036284       0.12940104      -0.24015056        6 
O       0.38117234      -1.95634957       0.58074348        8 
O       2.34815345      -1.82051312      -0.49365456        8 
O      -2.52471388       0.81224628       0.26716345        8 
O      -1.59718912      -0.88788051      -0.87488197        8 
C      -3.82299960       0.26790139      -0.02619159        6 
C       0.54454342      -3.37953219       0.69358804        6 
C       2.23455811       0.95807929      -0.19056357        6 
C       2.18852154       2.33225893       0.02944148        6 
C       0.97239370       2.94217892       0.31658419        6 
C      -0.19643132       2.18490965       0.32300121        6 
H      -3.98005827       0.21102451      -1.10438806        1 
H       0.53153078      -3.83976917      -0.29563382        1 
H       0.92395660       4.00753802       0.51003233        1 
H      -3.92358557      -0.73027878       0.40309375        1 
H      -4.53359155       0.95366347       0.43020176        1 
H      -0.30502405      -3.71962678       1.28142851        1 
H       1.48352635      -3.62099955       1.19418639        1 
H       3.10188652       2.91470351      -0.00264929        1 
H      -1.15177492       2.66594356       0.48130929        1 
H       3.17778273       0.45341076      -0.35745270        1 
