24
Lattice="0.0 0.0 0.0 0.0 0.0 0.0 0.0 0.0 0.0" Properties=species:S:1:pos:R:3:Z:I:1 pbc="F F F"
C       0.70104006       0.52859691       0.07481757        6 
C      -0.70484545       0.51511739      -0.10596237        6 
C       1.54943286      -0.68020095      -0.20585964        6 
C      -1.52096680      -0.72308288       0.14640235        6 
O       2.78834759      -0.55016534       0.32788570        8 
O       1.20222644      -1.64996554      -0.82784629        8 
O      -2.82142234      -0.53501593      -0.19158962        8 
O      -1.10929131      -1.76409110       0.58848876        8 
C      -3.69118063      -1.65783596       0.03260407        6 
C       3.68047087      -1.65394917       0.09288690        6 
C       1.35626996       1.75823651       0.18735345        6 
C       0.65788639       2.96232099       0.11863954        6 
C      -0.71340293       2.95016007      -0.10307814        6 
C      -1.38620391       1.73340388      -0.18946305        6 
H      -3.35672542      -2.52017023      -0.54592114        1 
H       3.26600284      -2.57200893       0.51210269        1 
H      -1.26736382       3.87854035      -0.18097800        1 
H      -3.70974305      -1.92278720       1.09109814        1 
H      -4.67499402      -1.33127484      -0.29790089        1 
H       4.60869848      -1.38713721       0.59354116        1 
H       3.84538941      -1.79199858      -0.97700498        1 
H       1.19179871       3.90075519       0.21380477        1 
H      -2.46201967       1.71758003      -0.29334646        1 
H       2.43170080       1.76212110       0.29971574        1 
