24
Lattice="0.0 0.0 0.0 0.0 0.0 0.0 0.0 0.0 0.0" Properties=species:S:1:pos:R:3:Z:I:1 pbc="F F F"
C       0.69992353       0.58146662      -0.01598935        6 
C      -0.70911258       0.55538555       0.07874775        6 
C       1.53112028      -0.63513361       0.27104298        6 
C      -1.47242154      -0.71519557      -0.15206552        6 
O       2.68885321      -0.62082844      -0.42594053        8 
O       1.23028154      -1.50608311       1.04620533        8 
O      -2.77621333      -0.58343382       0.18746703        8 
O      -1.00927437      -1.73674950      -0.59317014        8 
C      -3.59826397      -1.74376879      -0.03013953        6 
C       3.56290886      -1.74166714      -0.19589998        6 
C       1.35534280       1.81091975      -0.10338354        6 
C       0.64080811       3.00791865      -0.08310562        6 
C      -0.74326471       2.98451108       0.04586460        6 
C      -1.41128840       1.76334835       0.10582286        6 
H      -3.61220540      -2.00930288      -1.08858299        1 
H       3.87277375      -1.77671336       0.84986318        1 
H      -1.30772637       3.90923972       0.07582079        1 
H      -3.22249927      -2.58993996       0.54666119        1 
H      -4.59294101      -1.45990614       0.30688507        1 
H       4.41963998      -1.57852081      -0.84593849        1 
H       3.05600742      -2.67320192      -0.45128155        1 
H       1.16928815       3.95171545      -0.15161771        1 
H      -2.49148956       1.73577347       0.14817499        1 
H       2.43579561       1.82246463      -0.16198953        1 
