24
Lattice="0.0 0.0 0.0 0.0 0.0 0.0 0.0 0.0 0.0" Properties=species:S:1:pos:R:3:Z:I:1 pbc="F F F"
C       0.77283268      -0.62922161      -0.16587423        6 
C       0.85784028       0.76026083      -0.00197323        6 
C      -0.53963875      -1.33043026      -0.38877798        6 
C      -0.35529034       1.59672838       0.27089773        6 
O      -1.05081236      -1.78077516       0.77462563        8 
O      -1.07375068      -1.46751043      -1.45857404        8 
O      -1.29429829       1.45023429      -0.67915419        8 
O      -0.49609147       2.27279898       1.26166216        8 
C      -2.54759070       2.12204143      -0.44915039        6 
C      -2.32217991      -2.45680083       0.68676060        6 
C       1.94077528      -1.39099002      -0.23152357        6 
C       3.18730104      -0.78018004      -0.13745724        6 
C       3.27353466       0.60055701       0.03355853        6 
C       2.11300642       1.36084275       0.12478578        6 
H      -2.99730923       1.77445554       0.48238007        1 
H      -3.07606274      -1.79079184       0.26429120        1 
H       4.24146179       1.08128251       0.11231914        1 
H      -2.39683136       3.20097579      -0.39413384        1 
H      -3.17167384       1.86261149      -1.30096138        1 
H      -2.57583671      -2.72711664       1.70901125        1 
H      -2.23857124      -3.34670032       0.06117345        1 
H       4.08707192      -1.38164275      -0.19468450        1 
H       2.16752882       2.42797386       0.30330798        1 
H       1.86803648      -2.46463960      -0.36235576        1 
