24
Lattice="0.0 0.0 0.0 0.0 0.0 0.0 0.0 0.0 0.0" Properties=species:S:1:pos:R:3:Z:I:1 pbc="F F F"
C       0.75249566       0.76462956       0.10219030        6 
C      -0.61430603       0.54712624      -0.18225164        6 
C       1.82539654      -0.27729674       0.27129278        6 
C      -1.28923034      -0.80150897      -0.16677451        6 
O       1.73310223      -1.26804614      -0.61644476        8 
O       2.73995227      -0.15674637       1.05660462        8 
O      -2.52900082      -0.68049191       0.37727779        8 
O      -0.86446800      -1.85422236      -0.56689689        8 
C      -3.31309759      -1.88567851       0.41755686        6 
C       2.71636420      -2.31257402      -0.52445584        6 
C       1.22218746       2.07912442       0.21229290        6 
C       0.38845288       3.16864493      -0.00772535        6 
C      -0.95051888       2.95622838      -0.32184399        6 
C      -1.44572204       1.65927308      -0.37852798        6 
H      -3.46516218      -2.27868607      -0.58906432        1 
H       3.71339104      -1.91806725      -0.72779543        1 
H      -1.61410305       3.79422508      -0.50112883        1 
H      -2.81719749      -2.64408467       1.02541650        1 
H      -4.26165157      -1.59707280       0.86529363        1 
H       2.42637999      -3.04159106      -1.27727821        1 
H       2.70180965      -2.76105926       0.46994534        1 
H       0.78365612       4.17497404       0.06750080        1 
H      -2.49739975       1.49440206      -0.56834004        1 
H       2.26409939       2.22671961       0.46574849        1 
