24
Lattice="0.0 0.0 0.0 0.0 0.0 0.0 0.0 0.0 0.0" Properties=species:S:1:pos:R:3:Z:I:1 pbc="F F F"
C       0.68540370       0.60660464      -0.16542484        6 
C      -0.66146206       0.76205065       0.18924224        6 
C       1.27184365      -0.76682855      -0.21442964        6 
C      -1.54518368      -0.42981731       0.43936298        6 
O       2.50057252      -0.80560751       0.33623457        8 
O       0.73687751      -1.72465475      -0.72250452        8 
O      -2.21268630      -0.77496477      -0.67038639        8 
O      -1.68590509      -0.95655779       1.51588236        8 
C      -3.04510027      -1.94754727      -0.56765661        6 
C       3.15669280      -2.08869561       0.31152758        6 
C       1.47864124       1.73658950      -0.38086071        6 
C       0.92223316       3.00909569      -0.29639398        6 
C      -0.41994612       3.16043425       0.04860887        6 
C      -1.20879440       2.03943982       0.29354104        6 
H      -2.43350421      -2.81444920      -0.31485359        1 
H       2.56327676      -2.82625037       0.85330194        1 
H      -0.85414378       4.15041573       0.12799269        1 
H      -3.81378249      -1.80633425       0.19355246        1 
H      -3.49321637      -2.06840918      -1.55108905        1 
H       4.11461954      -1.93136065       0.80169202        1 
H       3.29829734      -2.42486571      -0.71669429        1 
H       1.53716428       3.88079371      -0.48686009        1 
H      -2.25158806       2.15355918       0.56595615        1 
H       2.52688329       1.60924297      -0.61933373        1 
