24
Lattice="0.0 0.0 0.0 0.0 0.0 0.0 0.0 0.0 0.0" Properties=species:S:1:pos:R:3:Z:I:1 pbc="F F F"
C      -0.41806710      -0.78745957      -0.07740410        6 
C      -1.04390019       0.46616068       0.00807064        6 
C       1.05762263      -0.88680065      -0.28900795        6 
C      -0.27394038       1.74596172      -0.11993563        6 
O       1.58771508      -1.91742638       0.40021037        8 
O       1.69709116      -0.17634000      -1.02787602        8 
O       0.66304134       1.84843572       0.83966148        8 
O      -0.47577565       2.57492437      -0.97119508        8 
C       1.57926514       2.95205329       0.70565616        6 
C       2.99369764      -2.15325452       0.19831088        6 
C      -1.19048112      -1.94987160       0.01142895        6 
C      -2.57248488      -1.87072050       0.15395719        6 
C      -3.19380066      -0.62504926       0.22129895        6 
C      -2.43131993       0.53727170       0.14047675        6 
H       2.15890497       2.83494713      -0.21144461        1 
H       3.19316475      -2.38771335      -0.84849756        1 
H      -4.26994622      -0.55736108       0.33255161        1 
H       1.03926219       3.89914943       0.68028360        1 
H       2.22514161       2.89943157       1.57908839        1 
H       3.23814296      -2.99988889       0.83581212        1 
H       3.57163136      -1.27436176       0.48662967        1 
H      -3.16201206      -2.77851288       0.21100753        1 
H      -2.90778550       1.50944992       0.18117006        1 
H      -0.70157637      -2.91395395      -0.04308636        1 
