24
Lattice="0.0 0.0 0.0 0.0 0.0 0.0 0.0 0.0 0.0" Properties=species:S:1:pos:R:3:Z:I:1 pbc="F F F"
C       0.71018149      -0.66948539      -0.16970978        6 
C       0.78048907       0.68683387       0.21641717        6 
C      -0.52986596      -1.51486383      -0.26098228        6 
C      -0.32254428       1.69427838       0.03139729        6 
O      -1.32831772      -1.35527047       0.80533146        8 
O      -0.69645083      -2.37432641      -1.09612617        8 
O      -1.56155136       1.18096536       0.05204217        8 
O      -0.10020168       2.85752041      -0.22109746        8 
C      -2.63034876       2.09548515      -0.25374895        6 
C      -2.51560781      -2.16565949       0.83157771        6 
C       1.89317323      -1.40296274      -0.31230647        6 
C       3.13017971      -0.83669066      -0.02604969        6 
C       3.19900948       0.48672046       0.40164686        6 
C       2.03702273       1.24461336       0.48195350        6 
H      -2.66329325       2.90261393       0.47922092        1 
H      -3.15407485      -1.92999282      -0.02191750        1 
H       4.15573606       0.93834588       0.63619356        1 
H      -2.49738638       2.51918971      -1.25020183        1 
H      -3.53876157       1.49872568      -0.20721727        1 
H      -3.01545175      -1.91325864       1.76403973        1 
H      -2.25993500      -3.22598775       0.80475552        1 
H       4.03168102      -1.42935039      -0.13033040        1 
H       2.08647604       2.29996752       0.71712089        1 
H       1.82001412      -2.43600659      -0.62870504        1 
