24
Lattice="0.0 0.0 0.0 0.0 0.0 0.0 0.0 0.0 0.0" Properties=species:S:1:pos:R:3:Z:I:1 pbc="F F F"
C       0.87235356       0.62850293      -0.16906180        6 
C      -0.50870605       0.66300253       0.12215959        6 
C       1.69819143      -0.62510297      -0.23186836        6 
C      -1.37326492      -0.53673838      -0.13203423        6 
O       1.41653382      -1.44646092       0.78986455        8 
O       2.61437476      -0.79159108      -1.00266992        8 
O      -2.68634157      -0.24528833       0.02341952        8 
O      -0.98717954      -1.64241244      -0.42547855        8 
C      -3.60031834      -1.33529914      -0.18818404        6 
C       2.09456159      -2.71437030       0.79240195        6 
C       1.59602137       1.81972716      -0.22352963        6 
C       0.98004766       3.04109298       0.03755228        6 
C      -0.37259794       3.07743085       0.36368735        6 
C      -1.11366212       1.89956144       0.37692704        6 
H      -3.52004800      -1.70828842      -1.21038803        1 
H       1.80950255      -3.28837762      -0.09091445        1 
H      -0.85937929       4.02174412       0.57806303        1 
H      -3.39154310      -2.14918468       0.50778324        1 
H      -4.58964110      -0.92028284      -0.00811327        1 
H       1.75924400      -3.21815307       1.69603240        1 
H       3.17654310      -2.57546856       0.80512479        1 
H       1.55844622       3.95667992      -0.00511417        1 
H      -2.17838500       1.93177976       0.56124083        1 
H       2.65328773       1.77054070      -0.45287710        1 
