24
Lattice="0.0 0.0 0.0 0.0 0.0 0.0 0.0 0.0 0.0" Properties=species:S:1:pos:R:3:Z:I:1 pbc="F F F"
C       0.67813007       0.55755105      -0.18825488        6 
C      -0.65472922       0.79374930       0.18345145        6 
C       1.22892589      -0.83430129      -0.16558101        6 
C      -1.64464017      -0.31403890       0.42263086        6 
O       2.46867900      -0.85808464       0.36880866        8 
O       0.67566669      -1.81862848      -0.59456648        8 
O      -2.05615851      -0.85020520      -0.73279747        8 
O      -2.08108349      -0.60977917       1.50925117        8 
C      -2.95576643      -1.97028142      -0.62983863        6 
C       3.10416110      -2.15041921       0.41269877        6 
C       1.52488459       1.64361576      -0.43179188        6 
C       1.04073547       2.94570855      -0.36123932        6 
C      -0.28097608       3.17667657       0.01571547        6 
C      -1.12143047       2.10329293       0.29599583        6 
H      -2.47358230      -2.78467315      -0.08765070        1 
H       2.51225873      -2.84278806       1.01290818        1 
H      -0.65770754       4.18996170       0.09392694        1 
H      -3.87363450      -1.68003294      -0.11631024        1 
H      -3.16364703      -2.26571498      -1.65542908        1 
H       4.07508108      -1.97827054       0.87139398        1 
H       3.21759160      -2.55447388      -0.59439705        1 
H       1.69918711       3.77819363      -0.57965366        1 
H      -2.14823750       2.27476008       0.59692994        1 
H       2.56322393       1.45850783      -0.67474546        1 
