24
Lattice="0.0 0.0 0.0 0.0 0.0 0.0 0.0 0.0 0.0" Properties=species:S:1:pos:R:3:Z:I:1 pbc="F F F"
C       0.97921132      -0.58570537       0.08794915        6 
C       0.50196081       0.73854014       0.05338707        6 
C       0.11511303      -1.80669939      -0.01425304        6 
C      -0.92071914       1.11225078       0.35931030        6 
O      -1.18909649      -1.51776373      -0.14972602        8 
O       0.55090296      -2.93452689      -0.07013804        8 
O      -1.44680616       1.87483592      -0.62089676        8 
O      -1.50221862       0.82279347       1.37360237        8 
C      -2.79654158       2.32938966      -0.40400721        6 
C      -2.08451260      -2.63539832      -0.27952227        6 
C       2.35703945      -0.81517674       0.01656983        6 
C       3.25658541       0.24031102      -0.07633469        6 
C       2.78056536       1.54721987      -0.14094941        6 
C       1.41092095       1.79091456      -0.07791414        6 
H      -3.46939892       1.47750730      -0.29537281        1 
H      -1.85009467      -3.21096647      -1.17647107        1 
H       3.47075636       2.37772379      -0.23438559        1 
H      -2.85300385       2.94730921       0.49350733        1 
H      -3.05170306       2.90977277      -1.28774685        1 
H      -3.07843438      -2.19932058      -0.34971927        1 
H      -2.01108610      -3.28305116       0.59493391        1 
H       4.32092865       0.04135783      -0.11911863        1 
H       1.03733690       2.80710167      -0.11117270        1 
H       2.70036888      -1.84201074       0.01310392        1 
