24
Lattice="0.0 0.0 0.0 0.0 0.0 0.0 0.0 0.0 0.0" Properties=species:S:1:pos:R:3:Z:I:1 pbc="F F F"
C       1.09923891      -0.09416729       0.14787065        6 
C       0.05063581       0.83278886      -0.05201114        6 
C       0.95805229      -1.58967843       0.07356454        6 
C      -1.37662188       0.50762638       0.27874371        6 
O      -0.19657493      -1.97615985      -0.48676609        8 
O       1.85641016      -2.35809702       0.33564844        8 
O      -2.23363811       1.34442448      -0.35266910        8 
O      -1.74144179      -0.36755441       1.02305503        8 
C      -3.62811003       1.14928268      -0.05888619        6 
C      -0.39924965      -3.39221197      -0.62295312        6 
C       2.41877107       0.36243342       0.15326248        6 
C       2.71844853       1.70851168      -0.03703783        6 
C       1.69092331       2.61426438      -0.27719978        6 
C       0.36840535       2.17736197      -0.27048284        6 
H      -3.94056508       0.14351024      -0.34416270        1 
H       0.37426540      -3.83258224      -1.25418365        1 
H       1.91044074       3.66148477      -0.45010506        1 
H      -3.81953331       1.29422020       1.00568293        1 
H      -4.15528653       1.89592792      -0.64882249        1 
H      -1.37922391      -3.49832852      -1.08277312        1 
H      -0.38387543      -3.87225800       0.35664654        1 
H       3.75031978       2.03945469      -0.01903520        1 
H      -0.43765836       2.88636462      -0.40254499        1 
H       3.20637559      -0.37000804       0.27689766        1 
