24
Lattice="0.0 0.0 0.0 0.0 0.0 0.0 0.0 0.0 0.0" Properties=species:S:1:pos:R:3:Z:I:1 pbc="F F F"
C       0.72111311       0.60165050      -0.08292964        6 
C      -0.68272354       0.68213869      -0.05290803        6 
C       1.37940802      -0.73567359       0.01199765        6 
C      -1.57128214      -0.49901342      -0.33794307        6 
O       2.72570936      -0.64198514       0.07222489        8 
O       0.79466218      -1.79314811       0.02929674        8 
O      -2.33475939      -0.80791930       0.72643024        8 
O      -1.63616688      -1.04877116      -1.40666874        8 
C      -3.23034906      -1.92405655       0.54756434        6 
C       3.43290146      -1.89188536       0.16640917        6 
C       1.47454330       1.77915436      -0.02138527        6 
C       0.84897355       3.01961436       0.05566433        6 
C      -0.54078458       3.09325135       0.11063667        6 
C      -1.30081318       1.92749140       0.05594936        6 
H      -3.94653154      -1.71448985      -0.24856133        1 
H       3.12634635      -2.43677974       1.06047792        1 
H      -1.03492823       4.05475706       0.19063477        1 
H      -2.66341131      -2.82146829       0.29721184        1 
H      -3.73923282      -2.04137696       1.50162030        1 
H       4.48569044      -1.62428984       0.22123865        1 
H       3.23650985      -2.50729844      -0.71289691        1 
H       1.44567881       3.92340839       0.09106122        1 
H      -2.38284220       1.98122237       0.08059547        1 
H       2.55356020       1.70877190      -0.01897010        1 
