24
Lattice="0.0 0.0 0.0 0.0 0.0 0.0 0.0 0.0 0.0" Properties=species:S:1:pos:R:3:Z:I:1 pbc="F F F"
C       0.99966793      -0.56720391      -0.01988672        6 
C       0.53151596       0.74845598       0.10854754        6 
C       0.08143751      -1.74635406       0.08878249        6 
C      -0.92106310       1.01138398       0.35334540        6 
O      -0.94544535      -1.64887367      -0.77752727        8 
O       0.23991183      -2.66410191       0.85428669        8 
O      -1.39374947       1.97586329      -0.45960735        8 
O      -1.58085138       0.47033987       1.20811634        8 
C      -2.77716464       2.33227921      -0.27090649        6 
C      -1.97586559      -2.64746976      -0.65067084        6 
C       2.36504399      -0.80421751      -0.17851999        6 
C       3.25868999       0.26028560      -0.24877298        6 
C       2.79116448       1.56942512      -0.14455571        6 
C       1.43126773       1.81273017       0.02669599        6 
H      -3.41816188       1.46909255      -0.45608364        1 
H      -1.56215158      -3.64603390      -0.79663670        1 
H       3.48448055       2.40082140      -0.19522628        1 
H      -2.94454360       2.69209229       0.74536695        1 
H      -2.97380518       3.11837156      -0.99623869        1 
H      -2.70054871      -2.41461408      -1.42760865        1 
H      -2.43439704      -2.58187625       0.33716705        1 
H       4.31689619       0.06808361      -0.38216293        1 
H       1.06065586       2.82691119       0.10820087        1 
H       2.71633811      -1.82676130      -0.24795456        1 
