24
Lattice="0.0 0.0 0.0 0.0 0.0 0.0 0.0 0.0 0.0" Properties=species:S:1:pos:R:3:Z:I:1 pbc="F F F"
C       0.61947240      -0.67280769      -0.00419956        6 
C      -0.78110198      -0.70549073       0.09747149        6 
C       1.33256489       0.63112647       0.10925092        6 
C      -1.62105886       0.52678975       0.29426294        6 
O       2.65958662       0.51098972      -0.10276284        8 
O       0.79964821       1.68475732       0.37243260        8 
O      -1.79123941       1.18478244      -0.86384398        8 
O      -2.14132020       0.82666259       1.33897832        8 
C      -2.51669656       2.42605074      -0.77678274        6 
C       3.42667889       1.72206507       0.01912847        6 
C       1.32219264      -1.87304899      -0.17180695        6 
C       0.64698402      -3.08709387      -0.23648785        6 
C      -0.74204104      -3.11554867      -0.12507767        6 
C      -1.44974911      -1.92894354       0.04508197        6 
H      -3.52033142       2.25794241      -0.38359789        1 
H       3.09037916       2.46091294      -0.70977246        1 
H      -1.27470131      -4.05882605      -0.16857882        1 
H      -1.98084988       3.12047773      -0.12829323        1 
H      -2.56105219       2.80617572      -1.79491256        1 
H       4.45650692       1.43166001      -0.17595923        1 
H       3.32643111       2.13650853       1.02341738        1 
H       1.20303210      -4.00832695      -0.36615697        1 
H      -2.52925506      -1.94764468       0.13935172        1 
H       2.40064463      -1.84314793      -0.24504566        1 
