24
Lattice="0.0 0.0 0.0 0.0 0.0 0.0 0.0 0.0 0.0" Properties=species:S:1:pos:R:3:Z:I:1 pbc="F F F"
C       0.79196131      -0.68105913       0.15106058        6 
C       0.77451108       0.69611280      -0.14626461        6 
C      -0.40834061      -1.57601503       0.09771943        6 
C      -0.46039949       1.54356078      -0.13385265        6 
O      -1.38338315      -1.07969884      -0.68822154        8 
O      -0.45478219      -2.67807963       0.59351484        8 
O      -1.30641161       1.17416718       0.84710861        8 
O      -0.62803856       2.51505757      -0.83234223        8 
C      -2.54189312       1.90495013       0.92470710        6 
C      -2.56514335      -1.88806308      -0.82100119        6 
C       2.01840551      -1.32882033       0.31745382        6 
C       3.21610357      -0.63445806       0.17763885        6 
C       3.19760848       0.71725742      -0.15713423        6 
C       1.98124356       1.37745195      -0.31154624        6 
H      -2.35204980       2.96961026       1.06669452        1 
H      -2.31627863      -2.86574343      -1.23582447        1 
H       4.12603484       1.26121607      -0.28669920        1 
H      -3.12164431       1.76180867       0.01062233        1 
H      -3.06951485       1.49069188       1.78093215        1 
H      -3.21543232      -1.33809164      -1.49770859        1 
H      -3.04450786      -2.02166337       0.15033092        1 
H       4.15830811      -1.15321457       0.31118778        1 
H       1.94966658       2.43531565      -0.54101761        1 
H       2.01222930      -2.39042057       0.53104083        1 
