24
Lattice="0.0 0.0 0.0 0.0 0.0 0.0 0.0 0.0 0.0" Properties=species:S:1:pos:R:3:Z:I:1 pbc="F F F"
C       0.69922323       0.62210495       0.07724550        6 
C      -0.68320006       0.73038455      -0.13566325        6 
C       1.31848304      -0.73350366       0.13147862        6 
C      -1.54253914      -0.47702002      -0.39826937        6 
O       2.63134932      -0.71103022      -0.17184891        8 
O       0.72358498      -1.74218155       0.43460328        8 
O      -2.25792948      -0.81088608       0.68655450        8 
O      -1.63224062      -1.01788289      -1.47213986        8 
C      -3.08965209      -1.98097476       0.55214961        6 
C       3.30423532      -1.98392969      -0.13031561        6 
C       1.46589376       1.78034043       0.23798836        6 
C       0.86022793       3.03261457       0.21410050        6 
C      -0.51471932       3.13620531       0.01007483        6 
C      -1.28299424       1.98793925      -0.16483119        6 
H      -3.82401762      -1.83908076      -0.24215620        1 
H       3.25957339      -2.40691287       0.87449656        1 
H      -0.99058025       4.10987577      -0.01365127        1 
H      -2.47157916      -2.85071463       0.32602263        1 
H      -3.58081635      -2.09726445       1.51544767        1 
H       4.33287464      -1.77537899      -0.41507110        1 
H       2.84263156      -2.67844668      -0.83346409        1 
H       1.45952190       3.92507751       0.35056850        1 
H      -2.35109806       2.06605113      -0.33117867        1 
H       2.53296477       1.68697620       0.39074043        1 
