24
Lattice="0.0 0.0 0.0 0.0 0.0 0.0 0.0 0.0 0.0" Properties=species:S:1:pos:R:3:Z:I:1 pbc="F F F"
C       0.79658105      -0.68578651      -0.12454493        6 
C       0.79973758       0.69920552       0.12313743        6 
C      -0.43748474      -1.53271252      -0.11984131        6 
C      -0.43419505       1.54546062       0.11651262        6 
O      -1.32518701      -1.11831012       0.80609482        8 
O      -0.58478682      -2.52714638      -0.78978352        8 
O      -1.31862486       1.12564685      -0.81036551        8 
O      -0.58623564       2.53864833       0.78689951        8 
C      -2.56097854       1.84649917      -0.87528363        6 
C      -2.55999214      -1.85264243       0.87271047        6 
C       2.00935308      -1.36220374      -0.26752440        6 
C       3.21786491      -0.68387098      -0.13950373        6 
C       3.22113425       0.68023766       0.14368456        6 
C       2.01656184       1.36722538       0.26852401        6 
H      -3.10971654       1.73710155       0.06228033        1 
H      -3.10882080      -1.75384968      -0.06593141        1 
H       4.15863380       1.21215883       0.25635262        1 
H      -2.38167575       2.90539843      -1.06519499        1 
H      -3.11338093       1.39636990      -1.69710402        1 
H      -3.11817916      -1.40511412       1.69199792        1 
H      -2.36910693      -2.90869425       1.06734339        1 
H       4.15204601      -1.22229144      -0.24955038        1 
H       2.00258122       2.43280458       0.46133763        1 
H       1.98788391      -2.42772754      -0.46077867        1 
