24
Lattice="0.0 0.0 0.0 0.0 0.0 0.0 0.0 0.0 0.0" Properties=species:S:1:pos:R:3:Z:I:1 pbc="F F F"
C       0.80579188      -0.68709888      -0.11096748        6 
C       0.80926817       0.70145713       0.10896407        6 
C      -0.43712185      -1.52008791      -0.13042982        6 
C      -0.43342654       1.53398776       0.12638759        6 
O      -1.31395938      -1.12740462       0.81543848        8 
O      -0.60754507      -2.47685951      -0.84730227        8 
O      -1.30720610       1.13550969      -0.82013518        8 
O      -0.60868206       2.48936871       0.84363526        8 
C      -2.56285758       1.83547095      -0.86031790        6 
C      -2.56165797      -1.84210797       0.85789870        6 
C       2.01762267      -1.36734010      -0.24233032        6 
C       3.22596546      -0.68696701      -0.12532466        6 
C       3.22957806       0.68294263       0.12994732        6 
C       2.02553341       1.37259872       0.24332373        6 
H      -3.10588741       1.69134675       0.07583141        1 
H      -3.10613099      -1.70841285      -0.07891989        1 
H       4.16738901       1.21637751       0.23218547        1 
H      -2.40277845       2.90219568      -1.02180831        1 
H      -3.11028885       1.39865669      -1.69256527        1 
H      -3.11435783      -1.40873131       1.68841614        1 
H      -2.38885256      -2.90627496       1.02334878        1 
H       4.16018358      -1.22736254      -0.22464857        1 
H       2.01277412       2.44078305       0.42165781        1 
H       1.99679971      -2.43546102      -0.42121443        1 
