24
Lattice="0.0 0.0 0.0 0.0 0.0 0.0 0.0 0.0 0.0" Properties=species:S:1:pos:R:3:Z:I:1 pbc="F F F"
C       0.64027558       0.62898829      -0.09037773        6 
C      -0.73778386       0.74822892       0.15724082        6 
C       1.29166269      -0.70966645       0.02077077        6 
C      -1.64367599      -0.43697860       0.35715503        6 
O       2.63783684      -0.62147608       0.06368857        8 
O       0.70281383      -1.76573954       0.05819734        8 
O      -1.91460475      -1.03522645      -0.81252365        8 
O      -2.14565681      -0.73377519       1.41305740        8 
C      -2.69491958      -2.24324475      -0.73581532        6 
C       3.34233807      -1.87251663       0.17024584        6 
C       1.39863694       1.78430664      -0.31369422        6 
C       0.79481665       3.03701021      -0.31623781        6 
C      -0.56969057       3.15082400      -0.05625163        6 
C      -1.33015701       2.00976756       0.18379166        6 
H      -2.14373966      -2.99919188      -0.17446621        1 
H       3.03004281      -2.40910622       1.06708354        1 
H      -1.04321094       4.12580800      -0.04008837        1 
H      -3.65476350      -2.05378597      -0.25316983        1 
H      -2.83749928      -2.56026507      -1.76637610        1 
H       4.39521728      -1.60623861       0.22772792        1 
H       3.14888100      -2.49427362      -0.70536943        1 
H       1.39008537       3.92294899      -0.50352574        1 
H      -2.39133934       2.09192737       0.38745389        1 
H       2.46298808       1.68776029      -0.47916792        1 
