24
Lattice="0.0 0.0 0.0 0.0 0.0 0.0 0.0 0.0 0.0" Properties=species:S:1:pos:R:3:Z:I:1 pbc="F F F"
C       0.76343259      -0.67953041      -0.17301795        6 
C       0.74719126       0.68909157       0.17301686        6 
C      -0.41486514      -1.60494314      -0.07762741        6 
C      -0.46399286       1.57215878       0.11982656        6 
O      -1.43086487      -1.08614164       0.63561956        8 
O      -0.40116776      -2.75261904      -0.46150773        8 
O      -1.34053724       1.16879132      -0.81820674        8 
O      -0.57166299       2.61281040       0.72645582        8 
C      -2.53201585       1.96102183      -0.95331771        6 
C      -2.56952802      -1.94207060       0.83166543        6 
C       1.99196472      -1.31724412      -0.36543708        6 
C       3.19102569      -0.62842960      -0.21124898        6 
C       3.17403135       0.70784580       0.17819736        6 
C       1.95739555       1.36095357       0.35734446        6 
H      -3.10765447       1.93766993      -0.02609839        1 
H      -3.02487977      -2.19415400      -0.12763941        1 
H       4.10229478       1.24764493       0.32532690        1 
H      -2.28217681       2.99499272      -1.19500666        1 
H      -3.09381978       1.50132467      -1.76343212        1 
H      -3.25992044      -1.36637355       1.44422164        1 
H      -2.27571139      -2.86055668       1.34143272        1 
H       4.13199517      -1.14233040      -0.37008450        1 
H       1.92488494       2.41229141       0.61417890        1 
H       1.98461764      -2.37339097      -0.60386021        1 
