24
Lattice="0.0 0.0 0.0 0.0 0.0 0.0 0.0 0.0 0.0" Properties=species:S:1:pos:R:3:Z:I:1 pbc="F F F"
C      -0.31639541      -0.79147634      -0.00069486        6 
C      -1.05024578       0.40909578       0.08610415        6 
C       1.14743265      -0.86239485       0.31241794        6 
C      -0.44852707       1.78077358       0.04630236        6 
O       1.76475336      -1.79913980      -0.44011785        8 
O       1.70499027      -0.21682445       1.16472046        8 
O       0.76698683       1.78983483      -0.52342497        8 
O      -1.03975040       2.78376917       0.37508047        8 
C       1.42841493       3.06460804      -0.58684041        6 
C       3.15768262      -2.01691629      -0.15149119        6 
C      -1.00189576      -1.99918033      -0.16582864        6 
C      -2.39335953      -2.03174339      -0.22346059        6 
C      -3.11846446      -0.84980513      -0.10595617        6 
C      -2.44598671       0.36083131       0.03572034        6 
H       0.83445644       3.77507356      -1.16354131        1 
H       3.72553641      -1.09799920      -0.30336709        1 
H      -4.20174541      -0.86561779      -0.13983205        1 
H       1.58683963       3.45585904       0.41901701        1 
H       2.38052530       2.87084876      -1.07544532        1 
H       3.48022726      -2.78747764      -0.84814594        1 
H       3.28542600      -2.35071605       0.87960662        1 
H      -2.90562091      -2.97910870      -0.34764660        1 
H      -2.99181486       1.29442064       0.08990822        1 
H      -0.43471562      -2.91903185      -0.22488597        1 
