24
Lattice="0.0 0.0 0.0 0.0 0.0 0.0 0.0 0.0 0.0" Properties=species:S:1:pos:R:3:Z:I:1 pbc="F F F"
C       0.72625158      -0.65999844       0.12609838        6 
C       0.86739805       0.71093834      -0.12890777        6 
C      -0.61111026      -1.29829227       0.38043875        6 
C      -0.25734482       1.67143657       0.11134451        6 
O      -1.22543281      -1.60777372      -0.77302999        8 
O      -1.04253492      -1.57527776       1.47312898        8 
O      -1.37602744       1.32976769      -0.55637605        8 
O      -0.19193555       2.60020853       0.87928602        8 
C      -2.54891111       2.11769819      -0.27236350        6 
C      -2.52545180      -2.21631343      -0.65515163        6 
C       1.84821307      -1.48966324       0.10655791        6 
C       3.10501645      -0.96514374      -0.17790096        6 
C       3.24893600       0.39832279      -0.43107638        6 
C       2.13935041       1.23444167      -0.37641997        6 
H      -2.80195405       2.05008523       0.78674083        1 
H      -2.45805484      -3.16615112      -0.12277900        1 
H       4.22657011       0.81194266      -0.64855617        1 
H      -2.38082958       3.16193705      -0.53850281        1 
H      -3.33834464       1.68894423      -0.88574229        1 
H      -2.86395411      -2.37127252      -1.67703267        1 
H      -3.20672269      -1.55164884      -0.12135539        1 
H       3.96905834      -1.61907294      -0.19757714        1 
H       2.24894817       2.30319060      -0.51544380        1 
H       1.73024822      -2.54719385       0.31295252        1 
