24
Lattice="0.0 0.0 0.0 0.0 0.0 0.0 0.0 0.0 0.0" Properties=species:S:1:pos:R:3:Z:I:1 pbc="F F F"
C       1.01991817      -0.44183984      -0.13002137        6 
C       0.31330882       0.77430618       0.01395369        6 
C       0.43575086      -1.82220836       0.02531886        6 
C      -1.15139040       0.94315742      -0.27748860        6 
O      -0.90075766      -1.85303432       0.03184679        8 
O       1.11809903      -2.80019785       0.24142340        8 
O      -1.70795258       1.85710673       0.55346766        8 
O      -1.76341516       0.38563479      -1.15113965        8 
C      -3.09526156       2.15436225       0.31228540        6 
C      -1.51195454      -3.13580941       0.25244096        6 
C       2.41867014      -0.41128836      -0.13720953        6 
C       3.12230760       0.78219385      -0.02577867        6 
C       2.42732358       1.97292189       0.15886739        6 
C       1.03595538       1.96256370       0.17619670        6 
H      -3.23301944       2.55018800      -0.69531369        1 
H      -1.21059663      -3.83956430      -0.52470701        1 
H       2.96056292       2.90894244       0.27882590        1 
H      -3.70255056       1.25529990       0.42820270        1 
H      -3.36599928       2.89837806       1.05825572        1 
H      -2.58294046      -2.95206516       0.20655303        1 
H      -1.22658747      -3.53296543       1.22791080        1 
H       4.20562856       0.77511757      -0.05420243        1 
H       0.48881142       2.88930365       0.28879714        1 
H       2.94278289      -1.35641157      -0.19757540        1 
