24
Lattice="0.0 0.0 0.0 0.0 0.0 0.0 0.0 0.0 0.0" Properties=species:S:1:pos:R:3:Z:I:1 pbc="F F F"
C       0.60490229       0.60986007      -0.13483368        6 
C      -0.76405432       0.71456643       0.18033818        6 
C       1.31868401      -0.69416669       0.04585432        6 
C      -1.69654287      -0.45675145       0.32249451        6 
O       2.65917990      -0.52588567       0.10242826        8 
O       0.79721575      -1.78158337       0.11963882        8 
O      -1.73702350      -1.18282681      -0.80416741        8 
O      -2.42882953      -0.62540248       1.26821694        8 
C      -2.54983484      -2.36889606      -0.76275943        6 
C       3.43201718      -1.72934685       0.26195664        6 
C       1.33200079       1.77753585      -0.39569347        6 
C       0.71287282       3.02328689      -0.37666856        6 
C      -0.63387837       3.12283130      -0.03647967        6 
C      -1.36479809       1.97178925       0.24393084        6 
H      -2.15553346      -3.06038721      -0.01649354        1 
H       3.14857795      -2.24500931       1.18050957        1 
H      -1.11787915       4.09172314       0.00803723        1 
H      -3.58457425      -2.12043654      -0.52244280        1 
H      -2.47810278      -2.80205907      -1.75782284        1 
H       4.46824931      -1.40211155       0.30881912        1 
H       3.27594616      -2.39722249      -0.58663120        1 
H       1.28727833       3.91440340      -0.60104186        1 
H      -2.41575516       2.03641690       0.49894493        1 
H       2.39091504       1.69848288      -0.59896023        1 
