24
Lattice="0.0 0.0 0.0 0.0 0.0 0.0 0.0 0.0 0.0" Properties=species:S:1:pos:R:3:Z:I:1 pbc="F F F"
C      -0.61657677      -0.81138029      -0.14629613        6 
C      -0.74424834       0.53048717       0.23249562        6 
C       0.71881508      -1.44614150      -0.41332385        6 
C       0.45705147       1.42402719       0.33316118        6 
O       1.35525295      -1.74067703       0.72774579        8 
O       1.14011426      -1.70080902      -1.51623035        8 
O       0.42262840       2.36581012      -0.63047221        8 
O       1.31977715       1.35128077       1.17244233        8 
C       1.51064802       3.31166003      -0.62983316        6 
C       2.65830193      -2.34195971       0.59394473        6 
C      -1.75975840      -1.59646464      -0.31056065        6 
C      -3.02251437      -1.06102033      -0.07566939        6 
C      -3.15068802       0.27434720       0.30211743        6 
C      -2.01718668       1.07125113       0.43207399        6 
H       1.54706215       3.85053755       0.31800358        1 
H       2.58884202      -3.28206578       0.04466781        1 
H      -4.13168860       0.69957610       0.47973966        1 
H       2.45911573       2.79659575      -0.78867749        1 
H       1.30117039       3.99063968      -1.45291884        1 
H       3.00071997      -2.51165133       1.61161859        1 
H       3.33325730      -1.66416207       0.06977095        1 
H      -3.90284991      -1.68219463      -0.19423202        1 
H      -2.11608435       2.11922180       0.68880346        1 
H      -1.65406197      -2.62900851      -0.62256981        1 
