24
Lattice="0.0 0.0 0.0 0.0 0.0 0.0 0.0 0.0 0.0" Properties=species:S:1:pos:R:3:Z:I:1 pbc="F F F"
C      -0.57969577      -0.69812752       0.08667949        6 
C      -0.94565425       0.65853884       0.04000387        6 
C       0.81667384      -1.18019605       0.36623428        6 
C       0.02858669       1.79008482      -0.02678993        6 
O       1.33803846      -1.80299564      -0.70752292        8 
O       1.36565892      -1.09692675       1.43520863        8 
O       1.30282170       1.36888729      -0.10369226        8 
O      -0.28876993       2.95675499      -0.07018777        8 
C       2.31385772       2.38970082      -0.16064532        6 
C       2.65526191      -2.35910620      -0.53225393        6 
C      -1.57051604      -1.67954069       0.00147468        6 
C      -2.91399177      -1.33005669      -0.10262127        6 
C      -3.28125788       0.01377039      -0.12611769        6 
C      -2.30022388       0.99628067      -0.06725285        6 
H       2.20196293       2.98387601      -1.06881460        1 
H       3.36490806      -1.57336376      -0.26936051        1 
H      -4.32499927       0.29480592      -0.20458740        1 
H       2.24251778       3.04206041       0.71028779        1 
H       3.26105193       1.85533063      -0.16293200        1 
H       2.91105261      -2.80310947      -1.49153151        1 
H       2.64930580      -3.11585988       0.25393368        1 
H      -3.66920205      -2.10573039      -0.16183478        1 
H      -2.56131310       2.04586027      -0.11651983        1 
H      -1.28447068      -2.72443838       0.03028173        1 
