24
Lattice="0.0 0.0 0.0 0.0 0.0 0.0 0.0 0.0 0.0" Properties=species:S:1:pos:R:3:Z:I:1 pbc="F F F"
C      -0.67307771      -0.65982208      -0.17030567        6 
C      -0.88415059       0.70197091       0.07390613        6 
C       0.71166782      -1.18770025      -0.40637012        6 
C       0.22676417       1.68554847      -0.14396462        6 
O       1.13308449      -1.91160818       0.64650531        8 
O       1.34436413      -1.04367423      -1.42368159        8 
O       1.19130101       1.55533374       0.78760433        8 
O       0.28895513       2.43825828      -1.08227764        8 
C       2.37771376       2.34914075       0.57736625        6 
C       2.43836341      -2.50988851       0.51787099        6 
C      -1.74808126      -1.54925172      -0.11884335        6 
C      -3.03295863      -1.08248132       0.14302315        6 
C      -3.24575161       0.27511139       0.37732372        6 
C      -2.17688573       1.16530938       0.32739006        6 
H       2.83730802       2.08635696      -0.37639899        1 
H       2.45915812      -3.20108670      -0.32612493        1 
H      -4.24388653       0.64163892       0.58737814        1 
H       2.13058221       3.41141575       0.58031019        1 
H       3.03739376       2.10564365       1.40689065        1 
H       2.60564633      -3.03837660       1.45338827        1 
H       3.19467734      -1.73797579       0.36997345        1 
H      -3.86407000      -1.77784865       0.16936511        1 
H      -2.34139307       2.22550381       0.47974297        1 
H      -1.57586514      -2.60601167      -0.28656613        1 
