24
Lattice="0.0 0.0 0.0 0.0 0.0 0.0 0.0 0.0 0.0" Properties=species:S:1:pos:R:3:Z:I:1 pbc="F F F"
C      -0.37655570      -0.77087352      -0.01106498        6 
C      -1.03233398       0.47477589      -0.07202123        6 
C       1.08180486      -0.93070163      -0.31751503        6 
C      -0.33731835       1.80077498      -0.03355932        6 
O       1.65271359      -1.85475729       0.48437351        8 
O       1.66578846      -0.36479934      -1.20785242        8 
O       0.89084613       1.71774662       0.50212656        8 
O      -0.86091784       2.84544791      -0.34669770        8 
C       1.65074443       2.93789583       0.54236517        6 
C       3.03142386      -2.16045146       0.20433067        6 
C      -1.13566929      -1.93537206       0.13783374        6 
C      -2.52615623      -1.88032822       0.19941149        6 
C      -3.17542285      -0.65250054       0.10698329        6 
C      -2.42821045       0.51534008      -0.01618462        6 
H       1.73729930       3.36124107      -0.45887274        1 
H       3.13863983      -2.54034121      -0.81296820        1 
H      -4.25731797      -0.60037936       0.14659008        1 
H       1.17215914       3.66247145       1.20308570        1 
H       2.62868853       2.65489099       0.92488341        1 
H       3.31242557      -2.91957045       0.93087148        1 
H       3.64891248      -1.26875228       0.32066141        1 
H      -3.09715406      -2.79540304       0.30890245        1 
H      -2.91304618       1.48275079      -0.05404711        1 
H      -0.62846189      -2.89055119       0.18191339        1 
