24
Lattice="0.0 0.0 0.0 0.0 0.0 0.0 0.0 0.0 0.0" Properties=species:S:1:pos:R:3:Z:I:1 pbc="F F F"
C       1.02633422      -0.52125159      -0.01704882        6 
C       0.46874639       0.76757720      -0.05612021        6 
C       0.20346318      -1.77124498      -0.04882371        6 
C      -0.98628324       0.97313003      -0.34404569        6 
O      -0.93002124      -1.63976752       0.66502907        8 
O       0.54181262      -2.79275060      -0.59691574        8 
O      -1.52349016       1.91031053       0.46210720        8 
O      -1.59615327       0.41516930      -1.22376297        8 
C      -2.91164395       2.21644744       0.22730796        6 
C      -1.85364192      -2.74175364       0.59933947        6 
C       2.40908632      -0.67285658       0.09382333        6 
C       3.23606545       0.44211771       0.19177901        6 
C       2.68125306       1.72009368       0.17825895        6 
C       1.30328108       1.88105332       0.05572364        6 
H      -3.05690775       2.57713436      -0.79201832        1 
H      -2.21984984      -2.85755794      -0.42206219        1 
H       3.31941317       2.59258014       0.25663835        1 
H      -3.52558189       1.32825347       0.38399572        1 
H      -3.16323869       2.98904284       0.95022879        1 
H      -2.66808502      -2.47635281       1.26950332        1 
H      -1.37265701      -3.66575351       0.92222357        1 
H       4.30815603       0.31270021       0.28291080        1 
H       0.86788967       2.87197998       0.02907627        1 
H       2.82000125      -1.67486306       0.11010588        1 
