24
Lattice="0.0 0.0 0.0 0.0 0.0 0.0 0.0 0.0 0.0" Properties=species:S:1:pos:R:3:Z:I:1 pbc="F F F"
C       0.75985699      -0.67598216       0.13253471        6 
C       0.85768291       0.71610474      -0.02931575        6 
C      -0.54692575      -1.40715714       0.25036326        6 
C      -0.32045372       1.63472824      -0.04210659        6 
O      -1.23010311      -1.36616343      -0.90941273        8 
O      -0.91300489      -2.00147175       1.23294485        8 
O      -1.39455804       1.09401172       0.56500828        8 
O      -0.31035139       2.75030563      -0.50801506        8 
C      -2.59720400       1.88299080       0.56498659        6 
C      -2.52274411      -2.00102983      -0.90116800        6 
C       1.92082924      -1.44854371       0.18415992        6 
C       3.17177493      -0.85391860       0.04784676        6 
C       3.27070578       0.52411263      -0.13708359        6 
C       2.11922507       1.30187406      -0.17297974        6 
H      -2.43941868       2.81683306       1.10628978        1 
H      -2.42511277      -3.06620209      -0.68647201        1 
H       4.24206293       0.99186162      -0.24580299        1 
H      -2.90471180       2.10572110      -0.45779302        1 
H      -3.34196146       1.27099346       1.06887191        1 
H      -2.92687748      -1.84620790      -1.89896344        1 
H      -3.16486252      -1.54065410      -0.14834367        1 
H       4.06505730      -1.46674629       0.08405644        1 
H       2.17514164       2.37484545      -0.30700298        1 
H       1.83596303      -2.51974047       0.32448052        1 
