24
Lattice="0.0 0.0 0.0 0.0 0.0 0.0 0.0 0.0 0.0" Properties=species:S:1:pos:R:3:Z:I:1 pbc="F F F"
C       0.82999096      -0.68231390      -0.06977023        6 
C       0.85932054       0.71595148       0.02989072        6 
C      -0.45771438      -1.43525512      -0.22548917        6 
C      -0.39751255       1.51664621       0.16969466        6 
O      -1.24861951      -1.28075018       0.85525994        8 
O      -0.76073740      -2.07782481      -1.19903482        8 
O      -1.27980713       1.21603607      -0.80410434        8 
O      -0.61477147       2.30135037       1.05965849        8 
C      -2.57719619       1.83213245      -0.69970705        6 
C      -2.55399767      -1.88518195       0.77442545        6 
C       2.02689012      -1.39708884      -0.13350992        6 
C       3.24669889      -0.73218522      -0.05804086        6 
C       3.27636527       0.65612656       0.06802439        6 
C       2.08649151       1.37501299       0.12225440        6 
H      -3.05842151       1.53975583       0.23523887        1 
H      -3.11485647      -1.46070465      -0.06011227        1 
H       4.22444816       1.17749803       0.12767318        1 
H      -2.48882549       2.91874812      -0.73398356        1 
H      -3.13937147       1.46516047      -1.55533023        1 
H      -3.03748153      -1.65500082       1.72100985        1 
H      -2.46868645      -2.96397118       0.63761688        1 
H       4.17092549      -1.29666589      -0.09939097        1 
H       2.09721508       2.45228896       0.23568815        1 
H       1.99371368      -2.47491955      -0.24063597        1 
