24
Lattice="0.0 0.0 0.0 0.0 0.0 0.0 0.0 0.0 0.0" Properties=species:S:1:pos:R:3:Z:I:1 pbc="F F F"
C       0.71795081       0.52736863       0.09783511        6 
C      -0.68893796       0.53636426      -0.06349143        6 
C       1.51901458      -0.71959149      -0.14748310        6 
C      -1.53600324      -0.67303380       0.21995358        6 
O       2.82485620      -0.54461846       0.16993055        8 
O       1.08538217      -1.76081164      -0.56951599        8 
O      -2.74928383      -0.57334226      -0.37522069        8 
O      -1.21126227      -1.61099810       0.90001963        8 
C      -3.65498785      -1.66336292      -0.12756208        6 
C       3.67107643      -1.68798639      -0.04312039        6 
C       1.39661833       1.74749302       0.16897974        6 
C       0.71628999       2.96121681       0.09115134        6 
C      -0.65861392       2.96838950      -0.10918222        6 
C      -1.35261006       1.76168072      -0.16959837        6 
H      -3.22255763      -2.60264606      -0.47512286        1 
H       3.32687484      -2.53215529       0.55615537        1 
H      -1.19768188       3.90474528      -0.19634144        1 
H      -3.87576696      -1.74316590       0.93826897        1 
H      -4.55571816      -1.42371282      -0.68875660        1 
H       4.66484393      -1.37412114       0.26882954        1 
H       3.67011861      -1.97374038      -1.09631097        1 
H       1.26669466       3.89231203       0.15981510        1 
H      -2.42946698       1.76022990      -0.27067537        1 
H       2.47383681       1.73569984       0.25835942        1 
