24
Lattice="0.0 0.0 0.0 0.0 0.0 0.0 0.0 0.0 0.0" Properties=species:S:1:pos:R:3:Z:I:1 pbc="F F F"
C      -0.16543316      -0.80201098      -0.04231217        6 
C      -1.06664119       0.27277651       0.14767624        6 
C       1.29775148      -0.71833542       0.28443241        6 
C      -0.72111956       1.73365501       0.04183239        6 
O       2.00844767      -1.63044796      -0.42065449        8 
O       1.79529349       0.02601530       1.09016252        8 
O       0.54819559       1.95362237      -0.32024920        8 
O      -1.54651435       2.61678782       0.12339798        8 
C       0.92855977       3.32648665      -0.50811260        6 
C       3.41246798      -1.70000957      -0.11773230        6 
C      -0.68200717      -2.08681571      -0.25109931        6 
C      -2.05349177      -2.32903083      -0.24823723        6 
C      -2.93635278      -1.28054022      -0.01550114        6 
C      -2.44008533       0.00846242       0.15471670        6 
H       0.34208828       3.77917858      -1.30933413        1 
H       3.89079912      -0.73658121      -0.29948413        1 
H      -4.00582489      -1.45554539       0.00629337        1 
H       0.77778283       3.89148463       0.41280296        1 
H       1.98376912       3.29729386      -0.76967880        1 
H       3.81445298      -2.46001018      -0.78420941        1 
H       3.56416751      -1.98403412       0.92516524        1 
H      -2.42334982      -3.33536675      -0.40856587        1 
H      -3.11405029       0.84878453       0.26141905        1 
H       0.00943242      -2.90768427      -0.38404455        1 
