24
Lattice="0.0 0.0 0.0 0.0 0.0 0.0 0.0 0.0 0.0" Properties=species:S:1:pos:R:3:Z:I:1 pbc="F F F"
C       0.73415729       0.52264971       0.13120841        6 
C      -0.67068998       0.56054462      -0.02643883        6 
C       1.49236264      -0.76178030      -0.04334562        6 
C      -1.56500469      -0.61422982       0.26039109        6 
O       2.83180545      -0.55106119      -0.05347595        8 
O       1.01022735      -1.86064659      -0.15192959        8 
O      -2.63917207      -0.62050347      -0.56349351        8 
O      -1.38935661      -1.42378159       1.13184354        8 
C      -3.59461369      -1.67212289      -0.33083210        6 
C       3.64215863      -1.72979183      -0.20377164        6 
C       1.44067571       1.72970205       0.16643764        6 
C       0.78612961       2.95482535       0.06836043        6 
C      -0.58977859       2.98766969      -0.12870502        6 
C      -1.30880505       1.79563652      -0.16900720        6 
H      -3.12047013      -2.64744874      -0.44840249        1 
H       3.45770132      -2.42554698       0.61605720        1 
H      -1.10825684       3.93361021      -0.23555793        1 
H      -4.01112579      -1.59467027       0.67497394        1 
H      -4.37037908      -1.52859806      -1.07987060        1 
H       4.67096838      -1.37670588      -0.18547077        1 
H       3.42277892      -2.22672083      -1.15011300        1 
H       1.35598514       3.87529392       0.11722193        1 
H      -2.38465012       1.81428061      -0.28531417        1 
H       2.51765799       1.69695382       0.24964138        1 
