24
Lattice="0.0 0.0 0.0 0.0 0.0 0.0 0.0 0.0 0.0" Properties=species:S:1:pos:R:3:Z:I:1 pbc="F F F"
C       0.73127984       0.53302795       0.11641804        6 
C      -0.67486346       0.56701284      -0.02428010        6 
C       1.48701752      -0.74944704      -0.07386061        6 
C      -1.55394284      -0.61751544       0.26700494        6 
O       2.82594863      -0.55779850       0.00678334        8 
O       0.99737642      -1.83389748      -0.26580132        8 
O      -2.64086862      -0.62911712      -0.53861415        8 
O      -1.35614152      -1.42966587       1.13187164        8 
C      -3.58042865      -1.69358984      -0.29939764        6 
C       3.63128866      -1.73800972      -0.15858588        6 
C       1.43535210       1.74112737       0.14843532        6 
C       0.77541810       2.96449378       0.06037482        6 
C      -0.60304097       2.99359674      -0.11873754        6 
C      -1.31961270       1.79948588      -0.15327903        6 
H      -3.09668959      -2.66221120      -0.43207433        1 
H       3.38652011      -2.47591185       0.60681718        1 
H      -1.12534910       3.93843922      -0.21616859        1 
H      -3.98202589      -1.62860286       0.71333325        1 
H      -4.36935671      -1.55340580      -1.03519214        1 
H       4.66061491      -1.40187378      -0.05440228        1 
H       3.46792019      -2.17733024      -1.14396581        1 
H       1.34282596       3.88675603       0.10358687        1 
H      -2.39706397       1.81499001      -0.25467212        1 
H       2.51338679       1.71092281       0.21993106        1 
