24
Lattice="0.0 0.0 0.0 0.0 0.0 0.0 0.0 0.0 0.0" Properties=species:S:1:pos:R:3:Z:I:1 pbc="F F F"
C       0.75830377      -0.67151195      -0.11607131        6 
C       0.87463093       0.72324062      -0.00351529        6 
C      -0.55869464      -1.37879833      -0.27344762        6 
C      -0.29831389       1.64655191       0.05231138        6 
O      -1.21935264      -1.44506455       0.89818151        8 
O      -0.95738600      -1.85476957      -1.30571673        8 
O      -1.38670113       1.12228782      -0.54317613        8 
O      -0.28021175       2.74070499       0.56590816        8 
C      -2.59166896       1.90575192      -0.48578436        6 
C      -2.52079146      -2.06094930       0.85093399        6 
C       1.90961638      -1.46011190      -0.14164193        6 
C       3.16831361      -0.87660292      -0.03417028        6 
C       3.28585063       0.50649408       0.09551750        6 
C       2.14399930       1.29820158       0.11611420        6 
H      -2.89183374       2.06363527       0.55135368        1 
H      -3.17508040      -1.50626112       0.17610166        1 
H       4.26376490       0.96554860       0.17934527        1 
H      -2.44090051       2.87173771      -0.96915689        1 
H      -3.33835350       1.32284299      -1.02036737        1 
H      -2.89676243      -2.02122773       1.87076585        1 
H      -2.44394639      -3.09365717       0.50829160        1 
H       4.05366796      -1.50164209      -0.05213413        1 
H       2.21323329       2.37329965       0.22449739        1 
H       1.81305786      -2.53461065      -0.24559884        1 
