24
Lattice="0.0 0.0 0.0 0.0 0.0 0.0 0.0 0.0 0.0" Properties=species:S:1:pos:R:3:Z:I:1 pbc="F F F"
C       0.65039562       0.56629242      -0.16602043        6 
C      -0.69641345       0.76043917       0.18810120        6 
C       1.26682546      -0.79511416      -0.06859194        6 
C      -1.68118147      -0.35935135       0.38945327        6 
O       2.57171438      -0.71754322       0.27606729        8 
O       0.70958014      -1.84433448      -0.28655413        8 
O      -1.93425289      -0.99109669      -0.76382998        8 
O      -2.26374851      -0.56943265       1.42648149        8 
C      -2.81758624      -2.12485067      -0.68716340        6 
C       3.26569879      -1.97546318       0.37506946        6 
C       1.45412483       1.68179222      -0.42784018        6 
C       0.92218322       2.96616078      -0.38464161        6 
C      -0.40784414       3.15469248      -0.01508185        6 
C      -1.20916106       2.05492900       0.27697473        6 
H      -2.37798069      -2.89359532      -0.05005526        1 
H       2.80396312      -2.60406603       1.13781676        1 
H      -0.82268677       4.15425735       0.04577516        1 
H      -3.78999220      -1.83044317      -0.28935604        1 
H      -2.91106671      -2.48565615      -1.70872034        1 
H       4.28558548      -1.72043048       0.65366911        1 
H       3.24496484      -2.49949091      -0.58163218        1 
H       1.55114181       3.81812226      -0.61473206        1 
H      -2.24518897       2.19139543       0.56347865        1 
H       2.50014849       1.53195819      -0.65928667        1 
