24
Lattice="0.0 0.0 0.0 0.0 0.0 0.0 0.0 0.0 0.0" Properties=species:S:1:pos:R:3:Z:I:1 pbc="F F F"
C       0.67968349       0.60185620       0.14321561        6 
C      -0.67805219       0.76549912      -0.16903551        6 
C       1.26845275      -0.77033344       0.13794199        6 
C      -1.58498736      -0.41009317      -0.41694624        6 
O       2.55638180      -0.76431673      -0.26036109        8 
O       0.68348148      -1.77302829       0.47712580        8 
O      -2.14741597      -0.83415098       0.72266978        8 
O      -1.83460946      -0.85144936      -1.51185117        8 
C      -2.97489324      -2.00948991       0.61764768        6 
C       3.21112846      -2.04766146      -0.27704678        6 
C       1.47831336       1.72952427       0.35822819        6 
C       0.92290900       3.00379709       0.30751132        6 
C      -0.42680599       3.16235863      -0.00290505        6 
C      -1.22300019       2.04600931      -0.24458363        6 
H      -3.79333294      -1.84278267      -0.08408629        1 
H       3.22755622      -2.48080299       0.72424241        1 
H      -0.86102101       4.15404097      -0.05799818        1 
H      -2.37148719      -2.85483819       0.28409451        1 
H      -3.35567163      -2.18358246       1.62125887        1 
H       4.22107333      -1.85089299      -0.62897741        1 
H       2.69228988      -2.72741369      -0.95427898        1 
H       1.54439816       3.87149777       0.49491401        1 
H      -2.27157109       2.16542614      -0.49133428        1 
H       2.53183715       1.59671013       0.56676679        1 
