24
Lattice="0.0 0.0 0.0 0.0 0.0 0.0 0.0 0.0 0.0" Properties=species:S:1:pos:R:3:Z:I:1 pbc="F F F"
C       0.96038945       0.44770472      -0.19283315        6 
C      -0.39946499       0.69087231       0.13023229        6 
C       1.65905670      -0.88764531      -0.13794559        6 
C      -1.48473380      -0.30828084      -0.17368933        6 
O       0.97727773      -1.80179422       0.56019796        8 
O       2.80042866      -1.05488522      -0.50887027        8 
O      -2.70998686       0.18678962       0.13825753        8 
O      -1.33846520      -1.41513905      -0.62683162        8 
C      -3.82194686      -0.68446486      -0.12631138        6 
C       1.59743882      -3.08923789       0.70817084        6 
C       1.84185475       1.52898785      -0.27171705        6 
C       1.42224120       2.83178443      -0.01872241        6 
C       0.10600490       3.06524686       0.36131720        6 
C      -0.79571269       2.00575438       0.40643218        6 
H      -3.85827558      -0.94985297      -1.18392680        1 
H       1.76941080      -3.54079447      -0.26995007        1 
H      -0.23182504       4.06929314       0.59060685        1 
H      -3.74337408      -1.59603137       0.46847561        1 
H      -4.70621482      -0.11775627       0.15774744        1 
H       0.88897015      -3.68276926       1.28149010        1 
H       2.54754476      -3.00026597       1.23771187        1 
H       2.12891223       3.65023191      -0.09214672        1 
H      -1.83712897       2.19608988       0.62241630        1 
H       2.87871692       1.31637433      -0.49852705        1 
