24
Lattice="0.0 0.0 0.0 0.0 0.0 0.0 0.0 0.0 0.0" Properties=species:S:1:pos:R:3:Z:I:1 pbc="F F F"
C       0.87147888      -0.70863354       0.00420648        6 
C       0.76223813       0.68640876       0.12240092        6 
C      -0.30205662      -1.63188927      -0.05573099        6 
C      -0.55619465       1.39150387       0.27687269        6 
O      -1.39292568      -1.11295170       0.53942992        8 
O      -0.28091712      -2.72503876      -0.57157940        8 
O      -1.21022757       1.45268174      -0.89909371        8 
O      -0.96500927       1.86029146       1.30803660        8 
C      -2.52134934       2.04678624      -0.85905807        6 
C      -2.59167191      -1.90642014       0.48617779        6 
C       2.13694646      -1.29197499      -0.11774772        6 
C       3.28386488      -0.50856556      -0.09571669        6 
C       3.17378897       0.87460296       0.03873556        6 
C       1.91866458       1.46668966       0.14920772        6 
H      -3.17102404       1.47776829      -0.19157432        1 
H      -2.90722541      -2.04655420      -0.54913886        1 
H       4.06330637       1.49351519       0.05748512        1 
H      -2.46466943       3.07907226      -0.51112510        1 
H      -2.88940394       2.00553296      -1.88171032        1 
H      -3.33490349      -1.34119100       1.04393288        1 
H      -2.42445866      -2.88085379       0.94657018        1 
H       4.25855279      -0.97419749      -0.18186669        1 
H       1.82978646       2.54132463       0.25694271        1 
H       2.19785152      -2.36743904      -0.22945098        1 
