24
Lattice="0.0 0.0 0.0 0.0 0.0 0.0 0.0 0.0 0.0" Properties=species:S:1:pos:R:3:Z:I:1 pbc="F F F"
C       0.90083887      -0.71644406       0.08907827        6 
C       0.68888236       0.67241504       0.11848488        6 
C      -0.19526748      -1.72712844      -0.04257059        6 
C      -0.65778942       1.30435400       0.34762560        6 
O      -1.39311202      -1.25219351       0.33946540        8 
O      -0.03456278      -2.83802155      -0.49396678        8 
O      -1.19525605       1.73705555      -0.80935175        8 
O      -1.17373209       1.43605581       1.42693141        8 
C      -2.49592055       2.35026114      -0.70737110        6 
C      -2.51856773      -2.13317382       0.17465869        6 
C       2.20848129      -1.20839746       0.00334029        6 
C       3.29546620      -0.34475600      -0.02263233        6 
C       3.08179824       1.03258577      -0.00508671        6 
C       1.78578009       1.53476950       0.06273204        6 
H      -3.21393319       1.64114708      -0.29244784        1 
H      -2.64349236      -2.39845415      -0.87631940        1 
H       3.92189323       1.71651310      -0.04184477        1 
H      -2.45353998       3.23402499      -0.06924282        1 
H      -2.76759190       2.62258536      -1.72462879        1 
H      -3.37654438      -1.57126387       0.53686377        1 
H      -2.38019629      -3.04164519       0.76225925        1 
H       4.30220958      -0.74238698      -0.07337201        1 
H       1.61960908       2.60549878       0.08288964        1 
H       2.34679547      -2.28051084      -0.05847096        1 
