24
Lattice="0.0 0.0 0.0 0.0 0.0 0.0 0.0 0.0 0.0" Properties=species:S:1:pos:R:3:Z:I:1 pbc="F F F"
C       0.67677080       0.51969970      -0.02936739        6 
C      -0.72799928       0.47237995       0.15822429        6 
C       1.60706468      -0.64295146       0.18985747        6 
C      -1.53279556      -0.80074383       0.06474018        6 
O       2.73868737      -0.49706664      -0.54866612        8 
O       1.41632363      -1.58363507       0.91188350        8 
O      -2.82563042      -0.51597788      -0.25666823        8 
O      -1.15402390      -1.92848533       0.23704964        8 
C      -3.70444623      -1.64895715      -0.35440813        6 
C       3.71773743      -1.53825186      -0.38674486        6 
C       1.29216287       1.76903449      -0.18707686        6 
C       0.56688745       2.95448627      -0.13005793        6 
C      -0.80325479       2.90971601       0.09834979        6 
C      -1.43934647       1.67850001       0.21011809        6 
H      -3.35887114      -2.33705207      -1.12767196        1 
H       4.05776130      -1.58693499       0.64922564        1 
H      -1.38235603       3.82339923       0.16570139        1 
H      -3.75417315      -2.17970513       0.59777497        1 
H      -4.67712126      -1.23723673      -0.61590367        1 
H       4.53830970      -1.26949391      -1.04841170        1 
H       3.29548030      -2.50417251      -0.66828728        1 
H       1.07624451       3.90393036      -0.24814997        1 
H      -2.51302451       1.63889793       0.32238669        1 
H       2.36323391       1.79980524      -0.33092093        1 
