24
Lattice="0.0 0.0 0.0 0.0 0.0 0.0 0.0 0.0 0.0" Properties=species:S:1:pos:R:3:Z:I:1 pbc="F F F"
C       0.67990956       0.64142927      -0.02583042        6 
C      -0.72152187       0.55709728      -0.14839992        6 
C       1.59926659      -0.51733787      -0.30002446        6 
C      -1.41281233      -0.76936535      -0.05443239        6 
O       2.43242463      -0.73674390       0.73843705        8 
O       1.62092080      -1.14011977      -1.32813914        8 
O      -2.72980809      -0.62124148       0.22785350        8 
O      -0.90083627      -1.84937967      -0.21670177        8 
C      -3.48993245      -1.83926748       0.31904867        6 
C       3.36620619      -1.82171783       0.56539832        6 
C       1.28034962       1.89158783       0.13536975        6 
C       0.51575840       3.05562099       0.14138709        6 
C      -0.86544885       2.97811851      -0.01358667        6 
C      -1.47817691       1.73461549      -0.12702838        6 
H      -3.45741142      -2.38149491      -0.62710892        1 
H       2.82873031      -2.75537531       0.39430501        1 
H      -1.46788723       3.87890188      -0.02051039        1 
H      -3.09488712      -2.47740352       1.11091392        1 
H      -4.50649030      -1.52776813       0.54947865        1 
H       3.93235678      -1.86625018       1.49297515        1 
H       4.02630612      -1.62616821      -0.28118204        1 
H       1.00078186       4.01786351       0.25861535        1 
H      -2.55538659       1.66225428      -0.18459869        1 
H       2.35743236       1.94803412       0.23583176        1 
