24
Lattice="0.0 0.0 0.0 0.0 0.0 0.0 0.0 0.0 0.0" Properties=species:S:1:pos:R:3:Z:I:1 pbc="F F F"
C       0.68169198       0.61046150      -0.00674471        6 
C      -0.72287899       0.54788771      -0.12980695        6 
C       1.57693057      -0.56139364      -0.29895742        6 
C      -1.44216435      -0.75945745       0.02259973        6 
O       2.54976987      -0.67975599       0.62996589        8 
O       1.47234568      -1.27733012      -1.25978604        8 
O      -2.78463579      -0.58546251       0.08246156        8 
O      -0.92599284      -1.84772741       0.07949779        8 
C      -3.56413899      -1.78616453       0.22341437        6 
C       3.47600122      -1.76381849       0.42072955        6 
C       1.30205270       1.85334297       0.13406373        6 
C       0.55727838       3.03082140       0.12341078        6 
C      -0.82363855       2.97430813      -0.03553429        6 
C      -1.45719785       1.73893524      -0.13224696        6 
H      -3.39658744      -2.45125410      -0.62497762        1 
H       2.94147411      -2.71418390       0.39148451        1 
H      -1.41142171       3.88455848      -0.05602602        1 
H      -3.29993992      -2.30752199       1.14480200        1 
H      -4.59995410      -1.45493038       0.25411676        1 
H       4.15706489      -1.72961391       1.26805914        1 
H       4.01841169      -1.62753622      -0.51640792        1 
H       1.05871079       3.98622676       0.22675818        1 
H      -2.53523020       1.68465198      -0.19078633        1 
H       2.38000388       1.89245122       0.22857721        1 
