24
Lattice="0.0 0.0 0.0 0.0 0.0 0.0 0.0 0.0 0.0" Properties=species:S:1:pos:R:3:Z:I:1 pbc="F F F"
C      -0.67775257      -0.67516150      -0.13972927        6 
C      -0.86644653       0.68802594       0.14468005        6 
C       0.66266324      -1.33145858      -0.32121499        6 
C       0.21545301       1.71613905       0.05737869        6 
O       1.26493039      -1.52962202       0.86356675        8 
O       1.08434831      -1.74126789      -1.37443898        8 
O       1.44858429       1.17829486       0.03364239        8 
O       0.00931325       2.90338765      -0.04684862        8 
C       2.53855109       2.09338794      -0.17673100        6 
C       2.54841184      -2.17822839       0.81371867        6 
C      -1.78628754      -1.52166477      -0.22105504        6 
C      -3.07074985      -1.03563066       0.00363337        6 
C      -3.26047826       0.31223476       0.30385665        6 
C      -2.16662832       1.16730153       0.35154124        6 
H       2.41032279       2.62359904      -1.12130926        1 
H       2.46241855      -3.16417058       0.35462913        1 
H      -4.25775223       0.69814990       0.47986178        1 
H       2.59156777       2.81544315       0.63909699        1 
H       3.43282811       1.47504749      -0.20190338        1 
H       2.87026679      -2.26219973       1.84917155        1 
H       3.25383027      -1.57538488       0.23918246        1 
H      -3.91890673      -1.70812750      -0.05718596        1 
H      -2.29831569       2.22658188       0.53269404        1 
H      -1.63501677      -2.56865446      -0.45671927        1 
