24
Lattice="0.0 0.0 0.0 0.0 0.0 0.0 0.0 0.0 0.0" Properties=species:S:1:pos:R:3:Z:I:1 pbc="F F F"
C       0.73152263      -0.57619335       0.21851710        6 
C       0.78064418       0.79947088      -0.04635655        6 
C      -0.56399294      -1.32194969       0.38317921        6 
C      -0.45245111       1.60190739      -0.34123487        6 
O      -0.80571105      -2.09162489      -0.69878644        8 
O      -1.28226079      -1.27773265       1.34879054        8 
O      -1.29745291       1.63056871       0.69865209        8 
O      -0.66351412       2.13750368      -1.40381762        8 
C      -2.55744989       2.29571109       0.48412119        6 
C      -2.00463607      -2.89206335      -0.65121921        6 
C       1.92009714      -1.30057587       0.33468400        6 
C       3.15027938      -0.66122208       0.22289654        6 
C       3.19989588       0.70608522      -0.04291731        6 
C       2.02003088       1.42524554      -0.19964507        6 
H      -2.39869616       3.35503472       0.27733425        1 
H      -1.96094513      -3.59489801       0.18216909        1 
H       4.15486129       1.20823763      -0.14393112        1 
H      -3.08839966       1.84000884      -0.35289629        1 
H      -3.11192647       2.16150793       1.40975987        1 
H      -2.03396381      -3.42198083      -1.60043402        1 
H      -2.88301644      -2.25493867      -0.53899513        1 
H       4.06565636      -1.23139522       0.33060779        1 
H       2.04944204       2.47887699      -0.45009350        1 
H       1.87543069      -2.36844892       0.51455120        1 
