24
Lattice="0.0 0.0 0.0 0.0 0.0 0.0 0.0 0.0 0.0" Properties=species:S:1:pos:R:3:Z:I:1 pbc="F F F"
C       0.77811396      -0.66894499      -0.10900314        6 
C       0.87588853       0.72774959      -0.01271936        6 
C      -0.53415700      -1.38285480      -0.27218167        6 
C      -0.31868307       1.62004890       0.08049912        6 
O      -1.21839657      -1.41741663       0.88780673        8 
O      -0.92050940      -1.87258831      -1.30249653        8 
O      -1.35806412       1.14570374      -0.63321681        8 
O      -0.36016808       2.63797634       0.72998528        8 
C      -2.59244306       1.87791193      -0.53382297        6 
C      -2.52172994      -2.02874334       0.82981441        6 
C       1.93967246      -1.44228854      -0.13379763        6 
C       3.19036498      -0.83974620      -0.03913186        6 
C       3.28902742       0.54625159       0.07604759        6 
C       2.13622653       1.32236700       0.09920708        6 
H      -2.94211836       1.89083446       0.49998444        1 
H      -3.16264076      -1.48320181       0.13492981        1 
H       4.26094681       1.01950194       0.15028153        1 
H      -2.45698049       2.90269520      -0.88155937        1 
H      -3.29350683       1.34605736      -1.17313453        1 
H      -2.91411226      -1.97028847       1.84250110        1 
H      -2.44348337      -3.06734176       0.50592286        1 
H       4.08460260      -1.45198034      -0.05563365        1 
H       2.19287953       2.39861812       0.20520259        1 
H       1.85723028      -2.51891170      -0.22743283        1 
