24
Lattice="0.0 0.0 0.0 0.0 0.0 0.0 0.0 0.0 0.0" Properties=species:S:1:pos:R:3:Z:I:1 pbc="F F F"
C       0.70241325       0.65764162       0.07009235        6 
C      -0.70212637       0.60719241       0.01439402        6 
C       1.51442056      -0.57351834       0.35015458        6 
C      -1.39735743      -0.70417815      -0.16740731        6 
O       2.53600190      -0.70125212      -0.51730617        8 
O       1.30606965      -1.32570452       1.26840089        8 
O      -2.69441881      -0.64460980       0.20218777        8 
O      -0.87898724      -1.69910737      -0.61404222        8 
C      -3.45314312      -1.85526395       0.02348176        6 
C       3.36872102      -1.86304754      -0.32896697        6 
C       1.34808026       1.89295161       0.04071019        6 
C       0.61154324       3.07500321      -0.02240900        6 
C      -0.77923125       3.02770588      -0.05565856        6 
C      -1.43139500       1.79730745      -0.04553690        6 
H      -3.48001848      -2.13660689      -1.03060180        1 
H       3.84438751      -1.83741906       0.65266472        1 
H      -1.35666849       3.94358284      -0.10362878        1 
H      -3.01158733      -2.66847000       0.60099558        1 
H      -4.45265482      -1.62481835       0.38528809        1 
H       4.11313018      -1.81563153      -1.12038728        1 
H       2.76896501      -2.77003172      -0.41552401        1 
H       1.12567594       4.02900699      -0.03921619        1 
H      -2.51064885       1.74756778      -0.10322590        1 
H       2.42967093       1.92479636       0.08521563        1 
