24
Lattice="0.0 0.0 0.0 0.0 0.0 0.0 0.0 0.0 0.0" Properties=species:S:1:pos:R:3:Z:I:1 pbc="F F F"
C       0.67221908       0.57112139      -0.00069316        6 
C      -0.73009751       0.50714698      -0.16441317        6 
C       1.60121949      -0.58499518      -0.24875821        6 
C      -1.48162224      -0.79260411      -0.07175542        6 
O       2.59622629      -0.60871271       0.67023578        8 
O       1.50969825      -1.37253948      -1.15150179        8 
O      -2.77575885      -0.57234736       0.27914507        8 
O      -1.04987677      -1.89743726      -0.27682030        8 
C      -3.60241708      -1.74489213       0.37757067        6 
C       3.57208446      -1.65372424       0.49812929        6 
C       1.28094969       1.81911689       0.16937290        6 
C       0.53784232       2.99554186       0.13871267        6 
C      -0.83714465       2.93674822      -0.06297153        6 
C      -1.46299971       1.70027884      -0.17994198        6 
H      -3.65233804      -2.26007805      -0.58296782        1 
H       3.08979031      -2.63153382       0.53591696        1 
H      -1.42684170       3.84516698      -0.10236807        1 
H      -3.20734375      -2.42952860       1.12968024        1 
H      -4.58506619      -1.38057291       0.66995408        1 
H       4.27031943      -1.53615505       1.32382761        1 
H       4.08495961      -1.54468645      -0.45905856        1 
H       1.03547953       3.95065240       0.26103095        1 
H      -2.53879358       1.64644175      -0.26845768        1 
H       2.35412419       1.85926236       0.30362927        1 
