24
Lattice="0.0 0.0 0.0 0.0 0.0 0.0 0.0 0.0 0.0" Properties=species:S:1:pos:R:3:Z:I:1 pbc="F F F"
C       0.89261601       0.65022364      -0.10683837        6 
C      -0.50440157       0.72641559       0.03873240        6 
C       1.62665585      -0.65374874      -0.24694083        6 
C      -1.34181261      -0.49646160      -0.14805519        6 
O       1.50702224      -1.39483153       0.86661111        8 
O       2.30286667      -0.95212819      -1.19980926        8 
O      -2.64347720      -0.26929545       0.13115559        8 
O      -0.92722534      -1.57295874      -0.51093204        8 
C      -3.52973292      -1.39013297      -0.04170996        6 
C       2.03521578      -2.73229507       0.79122572        6 
C       1.65438153       1.81711602      -0.08891151        6 
C       1.04485411       3.05497364       0.10160676        6 
C      -0.33603828       3.13319891       0.26958337        6 
C      -1.10626216       1.97606100       0.22575867        6 
H      -3.53159294      -1.71753168      -1.08264326        1 
H       1.54635762      -3.27407331      -0.01977312        1 
H      -0.81496346       4.09405573       0.41766850        1 
H      -3.22260149      -2.22089793       0.59507439        1 
H      -4.51307288      -1.02677881       0.24828749        1 
H       1.80398157      -3.18856279       1.75106606        1 
H       3.11321843      -2.71317108       0.62355052        1 
H       1.64853316       3.95498082       0.11907954        1 
H      -2.18222219       2.03067490       0.32167935        1 
H       2.72766319       1.74670282      -0.21906973        1 
