24
Lattice="0.0 0.0 0.0 0.0 0.0 0.0 0.0 0.0 0.0" Properties=species:S:1:pos:R:3:Z:I:1 pbc="F F F"
C       0.79241173       0.39669935      -0.22498790        6 
C      -0.44166620       0.96316688       0.12766773        6 
C       0.98706607      -1.09029782      -0.29137429        6 
C      -1.67459116       0.14816126       0.40096020        6 
O       1.98228784      -1.46971296       0.53996268        8 
O       0.38739016      -1.85715240      -1.00270196        8 
O      -2.13199748      -0.44676443      -0.70647034        8 
O      -2.21319070       0.08739721       1.48148005        8 
C      -3.28364829      -1.29742271      -0.54785193        6 
C       2.29740339      -2.87607729       0.54225116        6 
C       1.89836977       1.22819959      -0.42348570        6 
C       1.77139611       2.60972715      -0.32520902        6 
C       0.54655937       3.17037752       0.03244655        6 
C      -0.54819676       2.34740712       0.27534477        6 
H      -3.06638535      -2.09588826       0.16265770        1 
H       1.42689690      -3.46002115       0.84448141        1 
H       0.44509117       4.24482993       0.13164053        1 
H      -4.13981746      -0.72021075      -0.19513046        1 
H      -3.47373438      -1.70722048      -1.53673138        1 
H       3.10330131      -2.98881498       1.26372443        1 
H       2.61872694      -3.19752566      -0.44979783        1 
H       2.63062959       3.24425595      -0.50800183        1 
H      -1.49693725       2.77235762       0.58090968        1 
H       2.85846783       0.78320260      -0.65393549        1 
