24
Lattice="0.0 0.0 0.0 0.0 0.0 0.0 0.0 0.0 0.0" Properties=species:S:1:pos:R:3:Z:I:1 pbc="F F F"
C       0.71138971       0.62876392       0.05502498        6 
C      -0.68871587       0.63826699      -0.06246066        6 
C       1.43496599      -0.66334902       0.26499416        6 
C      -1.45043199      -0.62953863      -0.30624315        6 
O       2.64711787      -0.66464959      -0.32384550        8 
O       1.00347967      -1.58485116       0.91451488        8 
O      -2.57085275      -0.68621620       0.43955138        8 
O      -1.13475512      -1.46751677      -1.11422440        8 
C      -3.39296112      -1.85348391       0.24569580        6 
C       3.41759350      -1.87068481      -0.15858034        6 
C       1.40569505       1.83820194       0.10711614        6 
C       0.71771653       3.04926047       0.06342141        6 
C      -0.67135092       3.05739216      -0.03160190        6 
C      -1.37123503       1.85416457      -0.09361441        6 
H      -3.73580672      -1.91158465      -0.78860677        1 
H       3.63370344      -2.04420111       0.89680072        1 
H      -1.21154239       3.99654225      -0.06155108        1 
H      -2.83034046      -2.75510660       0.49091337        1 
H      -4.23435310      -1.72916694       0.92373912        1 
H       4.33559631      -1.70558289      -0.71798093        1 
H       2.86980152      -2.72469637      -0.55886001        1 
H       1.26682447       3.98237834       0.11005976        1 
H      -2.45038915       1.85163943      -0.18336273        1 
H       2.48388286       1.82241475       0.20100062        1 
