24
Lattice="0.0 0.0 0.0 0.0 0.0 0.0 0.0 0.0 0.0" Properties=species:S:1:pos:R:3:Z:I:1 pbc="F F F"
C       0.87939302      -0.67986810      -0.14382265        6 
C       0.70955061       0.68422748       0.13315884        6 
C      -0.21839280      -1.68007729       0.04733724        6 
C      -0.64126172       1.29419733       0.38705670        6 
O      -1.39307155      -1.26719824      -0.46663522        8 
O      -0.08141061      -2.71546690       0.65354978        8 
O      -1.24773231       1.61975120      -0.76559352        8 
O      -1.08544294       1.54093534       1.48168286        8 
C      -2.56588911       2.18678335      -0.64767860        6 
C      -2.53049386      -2.11338318      -0.20843176        6 
C       2.16366068      -1.17768247      -0.38596977        6 
C       3.25993845      -0.32454510      -0.40973258        6 
C       3.08815878       1.03124597      -0.13302320        6 
C       1.81882151       1.53076611       0.14316136        6 
H      -3.24345055       1.46632061      -0.18587433        1 
H      -2.36217488      -3.11267388      -0.61151080        1 
H       3.94142440       1.69939647      -0.12775948        1 
H      -2.54193893       3.09569575      -0.04518203        1 
H      -2.87767457       2.40633231      -1.66611486        1 
H      -3.36659375      -1.63273627      -0.71156020        1 
H      -2.71383579      -2.18228421       0.86488392        1 
H       4.24709405      -0.71861684      -0.62061166        1 
H       1.68214792       2.58216198       0.36751355        1 
H       2.28807936      -2.24227402      -0.54314630        1 
