24
Lattice="0.0 0.0 0.0 0.0 0.0 0.0 0.0 0.0 0.0" Properties=species:S:1:pos:R:3:Z:I:1 pbc="F F F"
C       0.68184380       0.64602647      -0.02702820        6 
C      -0.72063072       0.56514512      -0.13528492        6 
C       1.59056215      -0.51902723      -0.31004777        6 
C      -1.40853881      -0.76094314      -0.02444163        6 
O       2.43634455      -0.74184302       0.71634097        8 
O       1.59458354      -1.14173063      -1.33885185        8 
O      -2.74163321      -0.61697767       0.16550899        8 
O      -0.87502210      -1.84053128      -0.10132641        8 
C      -3.49307495      -1.83960350       0.27052696        6 
C       3.35857033      -1.83543964       0.53246649        6 
C       1.28809418       1.89454612       0.12207310        6 
C       0.52594987       3.06050617       0.13212434        6 
C      -0.85696971       2.98633857      -0.00862619        6 
C      -1.47455689       1.74424540      -0.11269562        6 
H      -3.39645726      -2.42635862      -0.64427912        1 
H       2.81024926      -2.76408852       0.36860664        1 
H      -1.45686223       3.88888250      -0.00960648        1 
H      -3.14003061      -2.43327363       1.11512163        1 
H      -4.52494920      -1.53105642       0.42313515        1 
H       3.93541308      -1.88433451       1.45309588        1 
H       4.00972116      -1.64621324      -0.32254635        1 
H       1.01444345       4.02211371       0.24030199        1 
H      -2.55242331       1.67408470      -0.16105776        1 
H       2.36639911       1.94883875       0.20979569        1 
