24
Lattice="0.0 0.0 0.0 0.0 0.0 0.0 0.0 0.0 0.0" Properties=species:S:1:pos:R:3:Z:I:1 pbc="F F F"
C      -0.69279317      -0.66823692       0.12567338        6 
C      -0.88525365       0.71828350       0.00752902        6 
C       0.64811448      -1.32236846       0.31891083        6 
C       0.22380408       1.71786696      -0.02863704        6 
O       1.22655530      -1.59386738      -0.86510985        8 
O       1.10963344      -1.62773771       1.38865921        8 
O       1.41535084       1.17477181       0.27958094        8 
O       0.07784428       2.88631293      -0.30518048        8 
C       2.54779807       2.06063363       0.26668658        6 
C       2.51568118      -2.23333974      -0.80244489        6 
C      -1.80142858      -1.51833362       0.12206106        6 
C      -3.08974762      -1.00760449      -0.00409034        6 
C      -3.28375874       0.36738717      -0.12602277        6 
C      -2.18688168       1.21966910      -0.12286157        6 
H       2.68593314       2.48611353      -0.72831341        1 
H       3.22412714      -1.60152644      -0.26447663        1 
H      -4.28445469       0.77189711      -0.22294919        1 
H       2.40644415       2.86640851       0.98803553        1 
H       3.39858964       1.44313571       0.54533777        1 
H       2.82420444      -2.36322627      -1.83721157        1 
H       2.43933950      -3.19788387      -0.29850309        1 
H      -3.93807977      -1.68272135      -0.00611842        1 
H      -2.31323457       2.29009975      -0.22463813        1 
H      -1.65088427      -2.58707168       0.22240054        1 
