24
Lattice="0.0 0.0 0.0 0.0 0.0 0.0 0.0 0.0 0.0" Properties=species:S:1:pos:R:3:Z:I:1 pbc="F F F"
C       0.75205932      -0.66425064      -0.11091614        6 
C       0.84238233       0.72231425       0.06095827        6 
C      -0.56279969      -1.34007238      -0.38203785        6 
C      -0.33506049       1.60880517      -0.22408035        6 
O      -1.19493889      -1.65079093       0.76251490        8 
O      -0.97992900      -1.61408623      -1.48057050        8 
O      -1.30602768       1.47333439       0.69844084        8 
O      -0.42664002       2.30998378      -1.20074720        8 
C      -2.52685484       2.19767604       0.44163778        6 
C      -2.47574700      -2.29770061       0.62330280        6 
C       1.89938772      -1.45275981      -0.02165763        6 
C       3.13315497      -0.86727282       0.24547627        6 
C       3.22538805       0.51292158       0.41645564        6 
C       2.08736210       1.30558126       0.30252285        6 
H      -2.33321943       3.27020881       0.40083402        1 
H      -3.16543480      -1.65655029       0.07208896        1 
H       4.18462443       0.97364197       0.62101356        1 
H      -2.96407446       1.87405045      -0.50413002        1 
H      -3.18373794       1.95722351       1.27438042        1 
H      -2.82876485      -2.45695779       1.63946792        1 
H      -2.36966821      -3.24780986       0.09775468        1 
H       4.01926802      -1.48721370       0.31591575        1 
H       2.15974572       2.38300359       0.39275379        1 
H       1.82109753      -2.52454255      -0.16369439        1 
