24
Lattice="0.0 0.0 0.0 0.0 0.0 0.0 0.0 0.0 0.0" Properties=species:S:1:pos:R:3:Z:I:1 pbc="F F F"
C       0.71403467       0.49770383      -0.11540908        6 
C      -0.68964793       0.50225932       0.09885978        6 
C       1.54837512      -0.73083416       0.13129073        6 
C      -1.55490242      -0.69906725      -0.17669980        6 
O       2.85688605      -0.50550461      -0.15191636        8 
O       1.14703125      -1.79696812       0.51836027        8 
O      -2.80974491      -0.52070668       0.31028818        8 
O      -1.21691513      -1.70051311      -0.75010637        8 
C      -3.72794698      -1.60107688       0.07153546        6 
C       3.73379286      -1.62614675       0.05390008        6 
C       1.38088940       1.72303047      -0.22013745        6 
C       0.70175728       2.93560404      -0.12467020        6 
C      -0.66267918       2.93936679       0.13401558        6 
C      -1.34821598       1.73033701       0.22325595        6 
H      -3.85889400      -1.76330310      -0.99972622        1 
H       3.70994997      -1.94475160       1.09730525        1 
H      -1.20229542       3.87355656       0.23929177        1 
H      -3.36159939      -2.52064826       0.53028697        1 
H      -4.66477403      -1.29011558       0.52921749        1 
H       4.72564333      -1.27040045      -0.21671445        1 
H       3.43727101      -2.46248346      -0.58103622        1 
H       1.24679778       3.86724779      -0.22305610        1 
H      -2.42068021       1.72821918       0.35853340        1 
H       2.45378596       1.71612516      -0.34854558        1 
