24
Lattice="0.0 0.0 0.0 0.0 0.0 0.0 0.0 0.0 0.0" Properties=species:S:1:pos:R:3:Z:I:1 pbc="F F F"
C      -0.05951476      -0.80067490       0.06976498        6 
C      -1.07227035       0.16978836      -0.14572113        6 
C       1.39916079      -0.58700712      -0.22953378        6 
C      -0.92589365       1.66500081       0.00821783        6 
O       2.16764921      -1.48286782       0.44078185        8 
O       1.86094159       0.24143209      -0.97021316        8 
O       0.33445336       2.08724610       0.12171603        8 
O      -1.88053190       2.39857202       0.15350278        8 
C       0.51633300       3.49142401       0.37069892        6 
C       3.57738849      -1.42186033       0.16679671        6 
C      -0.44397862      -2.13596059       0.26401834        6 
C      -1.77735660      -2.53127454       0.21661410        6 
C      -2.76278348      -1.58802432      -0.04936812        6 
C      -2.40623916      -0.25187089      -0.19521564        6 
H       0.09010666       4.08019351      -0.44266810        1 
H       3.77137279      -1.62144180      -0.88862438        1 
H      -3.80483992      -1.88039246      -0.10988042        1 
H       0.03980727       3.77803115       1.30955712        1 
H       1.59335015       3.63258550       0.42246011        1 
H       4.02651098      -2.19145515       0.79090331        1 
H       3.97428269      -0.43845528       0.42303531        1 
H      -2.03633692      -3.57332081       0.36620892        1 
H      -3.16832917       0.50789698      -0.30945318        1 
H       0.32838267      -2.87611446       0.41948084        1 
