24
Lattice="0.0 0.0 0.0 0.0 0.0 0.0 0.0 0.0 0.0" Properties=species:S:1:pos:R:3:Z:I:1 pbc="F F F"
C       0.77650080      -0.68843673       0.09482630        6 
C       0.78254201       0.71039142       0.09304488        6 
C      -0.48570183      -1.45734196       0.36921901        6 
C      -0.47715464       1.48089617       0.37266410        6 
O      -1.15954592      -1.70619636      -0.77017541        8 
O      -0.85317006      -1.80886013       1.46144993        8 
O      -1.16253596       1.71895422      -0.76188977        8 
O      -0.83976683       1.83049004       1.46709665        8 
C      -2.41509343       2.41845459      -0.60997166        6 
C      -2.40101380      -2.42734587      -0.62821916        6 
C       1.96341849      -1.38839808      -0.12106408        6 
C       3.15262653      -0.69985025      -0.34154375        6 
C       3.15900210       0.69363106      -0.34357072        6 
C       1.97704877       1.39624087      -0.12486221        6 
H      -3.09087879       1.84948750       0.03041743        1 
H      -2.22311687      -3.41233108      -0.19420361        1 
H       4.08295157       1.23410265      -0.51283206        1 
H      -2.25185404       3.40434814      -0.17252548        1 
H      -2.81901539       2.50531676      -1.61582349        1 
H      -2.79739983      -2.51721056      -1.63684681        1 
H      -3.09073028      -1.87349611       0.01041635        1 
H       4.07075420      -1.25075159      -0.50934808        1 
H       1.97871377       2.47998976      -0.11879236        1 
H       1.95213282      -2.47230067      -0.11303922        1 
