24
Lattice="0.0 0.0 0.0 0.0 0.0 0.0 0.0 0.0 0.0" Properties=species:S:1:pos:R:3:Z:I:1 pbc="F F F"
C       0.77274293       0.70904004       0.17740209        6 
C      -0.58834531       0.55349539      -0.17287453        6 
C       1.80267100      -0.38357199       0.27662463        6 
C      -1.32324381      -0.75300697      -0.01530094        6 
O       1.66532645      -1.29455243      -0.69046676        8 
O       2.74574324      -0.34217871       1.03523240        8 
O      -2.64108908      -0.52354659       0.21958381        8 
O      -0.87211321      -1.86825215      -0.08457443        8 
C      -3.46405548      -1.69468035       0.35990052        6 
C       2.59824083      -2.38792299      -0.68111986        6 
C       1.30625477       1.99717277       0.28499359        6 
C       0.53899878       3.12284749       0.00453894        6 
C      -0.78644994       2.97107650      -0.39010856        6 
C      -1.34756891       1.70000388      -0.44318830        6 
H      -3.42733868      -2.29955487      -0.54751219        1 
H       3.61984460      -2.02357031      -0.80012968        1 
H      -1.39323360       3.83778851      -0.62540388        1 
H      -3.12988328      -2.29795793       1.20534412        1 
H      -4.47069806      -1.31957284       0.53180019        1 
H       2.31009559      -3.01584604      -1.52086908        1 
H       2.51656956      -2.94311467       0.25445804        1 
H       0.98029317       4.10960144       0.08392494        1 
H      -2.39673168       1.58517288      -0.67579362        1 
H       2.34558100       2.09609007       0.57147316        1 
