24
Lattice="0.0 0.0 0.0 0.0 0.0 0.0 0.0 0.0 0.0" Properties=species:S:1:pos:R:3:Z:I:1 pbc="F F F"
C       0.73406549       0.77619513       0.16947790        6 
C      -0.62869748       0.60246213      -0.12781923        6 
C       1.67035569      -0.38225492       0.38079977        6 
C      -1.24662608      -0.75537595      -0.02881895        6 
O       1.97972220      -0.96334629      -0.78645137        8 
O       2.14883111      -0.68133086       1.44736162        8 
O      -2.58119729      -0.68332994       0.16811451        8 
O      -0.65592795      -1.80523716      -0.13186186        8 
C      -3.27275378      -1.94306894       0.25404028        6 
C       2.75011975      -2.17720671      -0.70409523        6 
C       1.27042442       2.06147834       0.22893833        6 
C       0.47080389       3.17194964      -0.02958823        6 
C      -0.87723801       3.00382519      -0.34017858        6 
C      -1.42763566       1.72734503      -0.36451528        6 
H      -3.16318307      -2.50290908      -0.67618292        1 
H       3.69062770      -2.00509411      -0.17910985        1 
H      -1.50290566       3.86533935      -0.54225884        1 
H      -2.87873864      -2.53735093       1.07944460        1 
H      -4.31546995      -1.68736568       0.42841537        1 
H       2.93126457      -2.47408720      -1.73449930        1 
H       2.16970969      -2.93990814      -0.18264020        1 
H       0.90122951       4.16588848       0.01206898        1 
H      -2.48254959       1.58973484      -0.56000048        1 
H       2.31881893       2.18612359       0.47238589        1 
