24
Lattice="0.0 0.0 0.0 0.0 0.0 0.0 0.0 0.0 0.0" Properties=species:S:1:pos:R:3:Z:I:1 pbc="F F F"
C      -0.63822959      -0.68725838      -0.19005957        6 
C      -0.82361301       0.68858427      -0.01017635        6 
C       0.73594038      -1.25276353      -0.38320118        6 
C       0.30498660       1.65345152      -0.24153623        6 
O       1.04258358      -2.11036050       0.61181501        8 
O       1.45740650      -1.03072426      -1.32406302        8 
O       1.04078887       1.82493279       0.87391885        8 
O       0.54505000       2.17394557      -1.29931119        8 
C       2.19427875       2.68171055       0.73741219        6 
C       2.31715039      -2.77406242       0.49995568        6 
C      -1.72987200      -1.55304634      -0.08403211        6 
C      -3.00583087      -1.05143433       0.15299626        6 
C      -3.19066102       0.31864318       0.32907828        6 
C      -2.10341899       1.18446014       0.24512416        6 
H       2.87209039       2.28100728      -0.01753888        1 
H       2.35547204      -3.37251936      -0.41159319        1 
H      -4.18028498       0.71417077       0.52668266        1 
H       1.88806958       3.68836853       0.44950028        1 
H       2.66512731       2.68842117       1.71755458        1 
H       2.38910159      -3.40799868       1.38069794        1 
H       3.12631737      -2.04277276       0.48424452        1 
H      -3.84985340      -1.72881262       0.21290159        1 
H      -2.24717107       2.25137934       0.37054816        1 
H      -1.57432557      -2.62008033      -0.18921839        1 
