24
Lattice="0.0 0.0 0.0 0.0 0.0 0.0 0.0 0.0 0.0" Properties=species:S:1:pos:R:3:Z:I:1 pbc="F F F"
C       0.50825901      -0.65303710       0.12810534        6 
C      -0.86685284      -0.57564123      -0.19216253        6 
C       1.42698575       0.50308137      -0.13997881        6 
C      -1.69048576       0.68234962      -0.22503626        6 
O       2.72450312       0.15781355       0.03947355        8 
O       1.09388908       1.61516912      -0.46837804        8 
O      -1.32008677       1.54611143       0.72921328        8 
O      -2.69094278       0.80958760      -0.89369686        8 
C      -2.06754555       2.77190510       0.79682520        6 
C       3.68583567       1.19893784      -0.20256081        6 
C       1.06296320      -1.90953588       0.40359819        6 
C       0.28614850      -3.06486203       0.38110263        6 
C      -1.05514639      -2.98896296       0.02019010        6 
C      -1.62332681      -1.74847088      -0.25681357        6 
H      -1.95607906       3.33049871      -0.13385962        1 
H       3.62834742       1.53745525      -1.23828808        1 
H      -1.66253051      -3.88534835      -0.03209012        1 
H      -3.12489539       2.56814687       0.97350132        1 
H      -1.63593391       3.32593927       1.62704150        1 
H       4.65514715       0.74897595       0.00062539        1 
H       3.50724895       2.04615896       0.46128373        1 
H       0.73791960      -4.02212038       0.61453076        1 
H      -2.67494835      -1.66569675      -0.50135014        1 
H       2.12180613      -1.97757711       0.60950514        1 
