24
Lattice="0.0 0.0 0.0 0.0 0.0 0.0 0.0 0.0 0.0" Properties=species:S:1:pos:R:3:Z:I:1 pbc="F F F"
C       0.79130541       0.69506278      -0.17800652        6 
C      -0.57333000       0.58236993       0.16891815        6 
C       1.76340851      -0.44766939      -0.27702954        6 
C      -1.32990748      -0.70203585      -0.03213108        6 
O       1.63818866      -1.29301045       0.75283231        8 
O       2.65925269      -0.49719644      -1.08867196        8 
O      -2.66003932      -0.46349197      -0.14548004        8 
O      -0.87156813      -1.81674513      -0.08077602        8 
C      -3.49225625      -1.62387661      -0.31764395        6 
C       2.48651806      -2.45334437       0.73427134        6 
C       1.37307304       1.96113513      -0.27286270        6 
C       0.64129957       3.10991241       0.01311327        6 
C      -0.69078352       3.00113127       0.40096853        6 
C      -1.29669728       1.74988420       0.44430493        6 
H      -3.21345461      -2.16359188      -1.22384266        1 
H       2.24381957      -3.07623232      -0.12825126        1 
H      -1.26770064       3.88755133       0.63780306        1 
H      -3.39884702      -2.29181793       0.54014115        1 
H      -4.50717553      -1.24023390      -0.39717254        1 
H       2.26661264      -2.98452165       1.65739628        1 
H       3.53753994      -2.16428688       0.69243366        1 
H       1.11495514       4.08216788      -0.05874324        1 
H      -2.35038137       1.66802653       0.67071227        1 
H       2.41686097       2.02768511      -0.55341490        1 
