24
Lattice="0.0 0.0 0.0 0.0 0.0 0.0 0.0 0.0 0.0" Properties=species:S:1:pos:R:3:Z:I:1 pbc="F F F"
C       0.63887062       0.54380297       0.19420096        6 
C      -0.71087359       0.75272567      -0.15336942        6 
C       1.28527545      -0.81091303       0.11281884        6 
C      -1.75275484      -0.31685097      -0.33722892        6 
O       2.55429227      -0.69676686      -0.35014392        8 
O       0.79979335      -1.87185666       0.41618261        8 
O      -1.81999972      -1.13948310       0.71338109        8 
O      -2.53103604      -0.33471453      -1.26381576        8 
C      -2.78497550      -2.20329964       0.63168458        6 
C       3.29188488      -1.92868439      -0.45170960        6 
C       1.45322210       1.65612167       0.44174557        6 
C       0.94180697       2.94794717       0.38572745        6 
C      -0.38348377       3.15175214       0.01042991        6 
C      -1.19665972       2.05855194      -0.26679193        6 
H      -3.79516968      -1.79910600       0.54740789        1 
H       3.37235603      -2.40833953       0.52498238        1 
H      -0.78476361       4.15564010      -0.06674013        1 
H      -2.57441681      -2.83633418      -0.23143157        1 
H      -2.66803518      -2.76622394       1.55448125        1 
H       4.27369000      -1.64648895      -0.82525389        1 
H       2.79822753      -2.61098035      -1.14540904        1 
H       1.58450453       3.79172111       0.60810477        1 
H      -2.22871655       2.20167986      -0.56229040        1 
H       2.49879126       1.49754012       0.66852321        1 
