24
Lattice="0.0 0.0 0.0 0.0 0.0 0.0 0.0 0.0 0.0" Properties=species:S:1:pos:R:3:Z:I:1 pbc="F F F"
C      -0.67579670      -0.66905894      -0.13508293        6 
C      -0.86715629       0.68824588       0.17238620        6 
C       0.66694835      -1.31508419      -0.33571051        6 
C       0.20596806       1.72230454       0.04727801        6 
O       1.27454881      -1.53625913       0.84170121        8 
O       1.08406879      -1.70565599      -1.39841878        8 
O       1.44467396       1.21129912       0.17147277        8 
O      -0.00966826       2.88388264      -0.21025122        8 
C       2.53378552       2.11732618      -0.08142034        6 
C       2.55814740      -2.18283411       0.77364122        6 
C      -1.78075992      -1.52089080      -0.21154250        6 
C      -3.06381887      -1.04544573       0.04109015        6 
C      -3.25606981       0.29726866       0.36269526        6 
C      -2.16683346       1.15875671       0.40062640        6 
H       2.48665818       2.48751301      -1.10659119        1 
H       2.47173977      -3.15778707       0.29170052        1 
H      -4.25253236       0.67491038       0.55998974        1 
H       2.49634720       2.96000367       0.60979230        1 
H       3.43709666       1.53195218       0.07412659        1 
H       2.88240191      -2.29061813       1.80610996        1 
H       3.26200677      -1.56625513       0.21185634        1 
H      -3.90923288      -1.72171483      -0.01553224        1 
H      -2.30462408       2.21592045       0.58994181        1 
H      -1.62738049      -2.56346727      -0.46475193        1 
