24
Lattice="0.0 0.0 0.0 0.0 0.0 0.0 0.0 0.0 0.0" Properties=species:S:1:pos:R:3:Z:I:1 pbc="F F F"
C       0.71042219       0.62106862      -0.00581617        6 
C      -0.68691324       0.70484837       0.10596563        6 
C       1.35189786      -0.72194935      -0.10618294        6 
C      -1.53863611      -0.50421954       0.38243038        6 
O       2.68328146      -0.67501526       0.10249815        8 
O       0.75666929      -1.74406526      -0.35783044        8 
O      -2.33422394      -0.79096623      -0.66170300        8 
O      -1.55371506      -1.08986958       1.43541110        8 
C      -3.18134516      -1.94713469      -0.50336400        6 
C       3.37428533      -1.93499273       0.01038709        6 
C       1.46298984       1.79393800      -0.12141122        6 
C       0.83558405       3.03604136      -0.13514790        6 
C      -0.55208735       3.11468182      -0.03807367        6 
C      -1.30926498       1.95172961       0.08188709        6 
H      -2.57183933      -2.83279243      -0.32021021        1 
H       2.97948724      -2.63794770       0.74518323        1 
H      -1.04652392       4.07918840      -0.05408661        1 
H      -3.87287976      -1.80301395       0.32818955        1 
H      -3.72236695      -2.03837154      -1.44249094        1 
H       4.41740693      -1.70746121       0.21773626        1 
H       3.26299368      -2.35916712      -0.98872702        1 
H       1.42776572       3.93869481      -0.22886948        1 
H      -2.38787665       2.00973436       0.16866399        1 
H       2.53806727       1.71966668      -0.21548093        1 
