24
Lattice="0.0 0.0 0.0 0.0 0.0 0.0 0.0 0.0 0.0" Properties=species:S:1:pos:R:3:Z:I:1 pbc="F F F"
C       0.81626324       0.67576303       0.19167174        6 
C      -0.55249072       0.59840212      -0.15378458        6 
C       1.76652614      -0.48808858       0.25684359        6 
C      -1.34599218      -0.66000137       0.06994287        6 
O       1.55669957      -1.35237647      -0.74353231        8 
O       2.71633771      -0.53821670       1.00471344        8 
O      -2.67678604      -0.39872140       0.07783621        8 
O      -0.91122665      -1.77587332       0.21438995        8 
C      -3.53779814      -1.53548094       0.26253198        6 
C       2.38467110      -2.52706906      -0.75911026        6 
C       1.43098824       1.92626111       0.28211932        6 
C       0.72894570       3.09411696      -0.00237815        6 
C      -0.60500665       3.01970752      -0.39078383        6 
C      -1.24355826       1.78436769      -0.43251824        6 
H      -3.39433403      -2.25832189      -0.54212408        1 
H       3.43994879      -2.25674544      -0.81890255        1 
H      -1.15860152       3.92044319      -0.62928069        1 
H      -3.33380967      -2.01914850       1.21894824        1 
H      -4.54950722      -1.13576684       0.24378529        1 
H       2.07706016      -3.08296088      -1.64178258        1 
H       2.20901115      -3.11797161       0.14132721        1 
H       1.22821752       4.05358554       0.06785322        1 
H      -2.29901864       1.73036198      -0.65838746        1 
H       2.47836265       1.96392512       0.55432347        1 
