24
Lattice="0.0 0.0 0.0 0.0 0.0 0.0 0.0 0.0 0.0" Properties=species:S:1:pos:R:3:Z:I:1 pbc="F F F"
C       0.75350090      -0.67973003      -0.16934610        6 
C       0.79140909       0.69203424       0.15542370        6 
C      -0.48275895      -1.52833466      -0.15945613        6 
C      -0.38485697       1.61778441       0.07175981        6 
O      -1.30226525      -1.20490852       0.85826571        8 
O      -0.65793259      -2.48204623      -0.88091335        8 
O      -1.42340411       1.07819600      -0.59322343        8 
O      -0.36430137       2.77076616       0.43781170        8 
C      -2.57699251       1.91902092      -0.76402250        6 
C      -2.52101212      -1.96210440       0.95040919        6 
C       1.94958072      -1.38030060      -0.33608282        6 
C       3.17687040      -0.74956781      -0.15249948        6 
C       3.21604711       0.59390027       0.21136113        6 
C       2.03032710       1.31018187       0.34424738        6 
H      -2.99685665       2.18881385       0.20652571        1 
H      -3.12636480      -1.81194246       0.05436386        1 
H       4.16626501       1.09079770       0.36845768        1 
H      -2.31177531       2.82764418      -1.30612273        1 
H      -3.28478699       1.32315079      -1.33613678        1 
H      -3.03484838      -1.57689411       1.82827833        1 
H      -2.30706567      -3.02566587       1.06476900        1 
H       4.09550954      -1.31028439      -0.28122195        1 
H       2.04290484       2.36943590       0.56778300        1 
H       1.89922376      -2.43265680      -0.58704476        1 
