24
Lattice="0.0 0.0 0.0 0.0 0.0 0.0 0.0 0.0 0.0" Properties=species:S:1:pos:R:3:Z:I:1 pbc="F F F"
C       0.67215756       0.54426158      -0.17966651        6 
C      -0.68455958       0.83868984       0.05922056        6 
C       1.23640028      -0.84785899      -0.25948609        6 
C      -1.78545479      -0.15893054       0.29820039        6 
O       2.34857815      -0.93882549       0.51103805        8 
O       0.81941667      -1.76635123      -0.91642294        8 
O      -1.80949049      -1.14320849      -0.60256382        8 
O      -2.60455616      -0.02802076       1.18044202        8 
C      -2.83381191      -2.14083473      -0.43941296        6 
C       3.01939318      -2.21247083       0.48779401        6 
C       1.58062062       1.60087730      -0.32333349        6 
C       1.15833816       2.92438062      -0.27963273        6 
C      -0.18150151       3.21435653      -0.03403128        6 
C      -1.08492435       2.17635703       0.15630902        6 
H      -2.74198347      -2.62468830       0.53415909        1 
H       2.35784180      -2.99811694       0.85637525        1 
H      -0.52061960       4.24224521       0.02073930        1 
H      -3.82361046      -1.68934252      -0.52513159        1 
H      -2.66307239      -2.85561554      -1.24063240        1 
H       3.87923643      -2.09753695       1.14394724        1 
H       3.33699405      -2.45986720      -0.52645258        1 
H       1.87657494       3.72379425      -0.41932872        1 
H      -2.12219008       2.38590612       0.38559033        1 
H       2.62763630       1.37191239      -0.47392683        1 
