24
Lattice="0.0 0.0 0.0 0.0 0.0 0.0 0.0 0.0 0.0" Properties=species:S:1:pos:R:3:Z:I:1 pbc="F F F"
C       0.76868929      -0.66450955      -0.10909632        6 
C       0.88179307       0.73189088      -0.02756534        6 
C      -0.54863292      -1.36665921      -0.28997204        6 
C      -0.30190591       1.63724067       0.08119135        6 
O      -1.20954155      -1.47462110       0.87885308        8 
O      -0.95593146      -1.78862961      -1.34161704        8 
O      -1.36413941       1.16367100      -0.59740698        8 
O      -0.31819307       2.66120041       0.72274265        8 
C      -2.58859265       1.90982228      -0.47634764        6 
C      -2.51145374      -2.08921019       0.80995421        6 
C       1.92211337      -1.45048304      -0.12157407        6 
C       3.17941977      -0.86070964      -0.03497369        6 
C       3.29354019       0.52552876       0.06112669        6 
C       2.14901585       1.31365707       0.07770790        6 
H      -2.90994005       1.94280663       0.56613192        1 
H      -3.16852115      -1.50707095       0.16145874        1 
H       4.27059653       0.98903056       0.12908138        1 
H      -2.45219534       2.92766950      -0.84363775        1 
H      -3.31146489       1.37512808      -1.08828666        1 
H      -2.88360479      -2.09328598       1.83188020        1 
H      -2.43469943      -3.10606880       0.42288940        1 
H       4.06666031      -1.48326307      -0.04392757        1 
H       2.21665597       2.38995811       0.17635068        1 
H       1.82919811      -2.52737329      -0.20246079        1 
