24
Lattice="0.0 0.0 0.0 0.0 0.0 0.0 0.0 0.0 0.0" Properties=species:S:1:pos:R:3:Z:I:1 pbc="F F F"
C      -0.61689524      -0.67984083       0.09863013        6 
C      -0.92213538       0.69208035       0.06283273        6 
C       0.75799071      -1.23458066       0.35332958        6 
C       0.10119204       1.77865726      -0.02417969        6 
O       1.27703335      -1.77284242      -0.76651979        8 
O       1.29290861      -1.26294051       1.43161078        8 
O       1.35755334       1.31611724       0.09134325        8 
O      -0.16196828       2.94122012      -0.23203616        8 
C       2.41300277       2.28756086      -0.00437896        6 
C       2.57574856      -2.38073440      -0.62752392        6 
C      -1.65251892      -1.61505781       0.02286142        6 
C      -2.97963951      -1.20570120      -0.06539862        6 
C      -3.28651677       0.15356644      -0.08274598        6 
C      -2.26150046       1.09012553      -0.03452862        6 
H       2.41290992       2.75171295      -0.99181423        1 
H       3.30221019      -1.64365255      -0.28243853        1 
H      -4.31734542       0.48144153      -0.14923646        1 
H       2.28975801       3.05793910       0.75762817        1 
H       3.33170785       1.72925907       0.16050259        1 
H       2.83412845      -2.74035497      -1.62086848        1 
H       2.53664411      -3.20741016       0.08370056        1 
H      -3.76936746      -1.94673595      -0.11765718        1 
H      -2.47444415       2.15034665      -0.08605560        1 
H      -1.41423100      -2.67215152       0.04527386        1 
