24
Lattice="0.0 0.0 0.0 0.0 0.0 0.0 0.0 0.0 0.0" Properties=species:S:1:pos:R:3:Z:I:1 pbc="F F F"
C      -0.69549878      -0.65969273      -0.11453848        6 
C      -0.88723005       0.73009470      -0.04426166        6 
C       0.64272938      -1.31701353      -0.31619887        6 
C       0.22717323       1.72186681       0.03281274        6 
O       1.21334816      -1.62670198       0.86284498        8 
O       1.11511887      -1.58294447      -1.39121945        8 
O       1.40282846       1.20477690      -0.36611810        8 
O       0.09914445       2.85678248       0.43068790        8 
C       2.54807630       2.06981982      -0.28193419        6 
C       2.49757964      -2.27547224       0.78620454        6 
C      -1.80549523      -1.50798139      -0.08966131        6 
C      -3.09419563      -0.99186758       0.00484620        6 
C      -3.28751913       0.38686835       0.07568788        6 
C      -2.18882512       1.23676257       0.06284372        6 
H       2.40910671       2.94613669      -0.91642041        1 
H       2.41520021      -3.22222568       0.25043247        1 
H      -4.28862947       0.79560668       0.14744548        1 
H       2.70710758       2.39092352       0.74851002        1 
H       3.38519256       1.47193247      -0.63507134        1 
H       2.79936853      -2.44206061       1.81764716        1 
H       3.21443158      -1.63299407       0.27263368        1 
H      -3.94356365      -1.66544890       0.02165664        1 
H      -2.31480408       2.30913258       0.14271171        1 
H      -1.65573548      -2.57979411      -0.15085702        1 
