24
Lattice="0.0 0.0 0.0 0.0 0.0 0.0 0.0 0.0 0.0" Properties=species:S:1:pos:R:3:Z:I:1 pbc="F F F"
C       0.83034142      -0.68466130      -0.12658067        6 
C       0.72809612       0.69129248       0.15138277        6 
C      -0.30829375      -1.65469085      -0.05018961        6 
C      -0.56945059       1.44109240       0.24517387        6 
O      -1.46955505      -1.07965432       0.31354128        8 
O      -0.18763385      -2.84835085      -0.20733151        8 
O      -1.24236555       1.38728698      -0.91852306        8 
O      -0.91363910       2.09685295       1.19766093        8 
C      -2.51829797       2.05100427      -0.93827870        6 
C      -2.59310574      -1.96220649       0.48308858        6 
C       2.09735561      -1.24920874      -0.31082249        6 
C       3.24551023      -0.47072465      -0.23056916        6 
C       3.14160007       0.88449379       0.07567525        6 
C       1.88792193       1.45854173       0.26813640        6 
H      -3.18717810       1.60451802      -0.20009839        1 
H      -2.82956636      -2.46181387      -0.45751367        1 
H       4.03252882       1.49544422       0.16331082        1 
H      -2.40280258       3.11379563      -0.72060795        1 
H      -2.90523197       1.90455805      -1.94415098        1 
H      -3.41550289      -1.32347871       0.79726836        1 
H      -2.37602820      -2.71186764       1.24497415        1 
H       4.21730995      -0.92488381      -0.38461131        1 
H       1.79633275       2.51291326       0.49936400        1 
H       2.15843395      -2.31438556      -0.49532957        1 
