24
Lattice="0.0 0.0 0.0 0.0 0.0 0.0 0.0 0.0 0.0" Properties=species:S:1:pos:R:3:Z:I:1 pbc="F F F"
C       0.76622266      -0.62073953      -0.18984596        6 
C       0.81980114       0.75473258       0.06823253        6 
C      -0.54043722      -1.33581811      -0.39830217        6 
C      -0.42527708       1.54177695       0.35446981        6 
O      -0.97504193      -1.88941430       0.75074219        8 
O      -1.12745246      -1.41173261      -1.44734634        8 
O      -1.21810171       1.62895408      -0.72565505        8 
O      -0.69957746       2.00113618       1.43680261        8 
C      -2.49017011       2.27977897      -0.53672945        6 
C      -2.22558331      -2.60520126       0.67696642        6 
C       1.94963623      -1.35049840      -0.30993368        6 
C       3.18201411      -0.71630853      -0.18657036        6 
C       3.23641344       0.65170795       0.07447152        6 
C       2.05922397       1.37869445       0.22032691        6 
H      -3.07271601       1.75721030       0.22354063        1 
H      -3.02608842      -1.93834397       0.35360225        1 
H       4.19338541       1.14971420       0.17689805        1 
H      -2.34599369       3.31685430      -0.23104506        1 
H      -2.98449815       2.22662102      -1.50366344        1 
H      -2.41018951      -2.96524007       1.68627404        1 
H      -2.14692094      -3.43888481      -0.02238833        1 
H       4.09568164      -1.29028200      -0.28828966        1 
H       2.09365433       2.43518634       0.45840415        1 
H       1.90059988      -2.41601968      -0.50301833        1 
