24
Lattice="0.0 0.0 0.0 0.0 0.0 0.0 0.0 0.0 0.0" Properties=species:S:1:pos:R:3:Z:I:1 pbc="F F F"
C       0.77471450      -0.67624916      -0.18084014        6 
C       0.74004839       0.68676256       0.18725105        6 
C      -0.38130518      -1.62966461      -0.06645869        6 
C      -0.48289370       1.55592626       0.16343705        6 
O      -1.47383378      -1.07987779       0.49228010        8 
O      -0.29740756      -2.81305477      -0.30795937        8 
O      -1.30872838       1.22659410      -0.84578975        8 
O      -0.63143799       2.53792058       0.85317677        8 
C      -2.51134843       2.00517142      -0.95836931        6 
C      -2.58320662      -1.96605251       0.72157878        6 
C       2.01402060      -1.28826769      -0.39211543        6 
C       3.20211127      -0.58011536      -0.24519479        6 
C       3.16629029       0.74877583       0.16756628        6 
C       1.94034997       1.37569257       0.37391456        6 
H      -3.12195367       1.88621409      -0.06122623        1 
H      -2.92363482      -2.40212523      -0.21871842        1 
H       4.08643203       1.30245215       0.31428181        1 
H      -2.27658910       3.06159152      -1.09576935        1 
H      -3.03052046       1.61018532      -1.82876460        1 
H      -3.36050273      -1.34455027       1.16085338        1 
H      -2.29835473      -2.76631211       1.40627950        1 
H       4.14990342      -1.07458922      -0.42364798        1 
H       1.89279375       2.42021713       0.65519883        1 
H       2.02369719      -2.34294919      -0.63648951        1 
