24
Lattice="0.0 0.0 0.0 0.0 0.0 0.0 0.0 0.0 0.0" Properties=species:S:1:pos:R:3:Z:I:1 pbc="F F F"
C      -0.32493952      -0.81439022      -0.02712444        6 
C      -1.07200656       0.37666099      -0.03880508        6 
C       1.14698470      -0.80804724      -0.29061918        6 
C      -0.45128326       1.73783589      -0.09167011        6 
O       1.77700140      -1.78279342       0.39703642        8 
O       1.70553011      -0.06634838      -1.06259324        8 
O       0.59706074       1.83730407       0.74405304        8 
O      -0.88311182       2.65304371      -0.75039306        8 
C       1.33545687       3.07079807       0.68156338        6 
C       3.18707313      -1.92156361       0.14211124        6 
C      -0.98888794      -2.03844001       0.10128875        6 
C      -2.37729174      -2.08661159       0.19548299        6 
C      -3.11717805      -0.90714178       0.15871939        6 
C      -2.46443810       0.31717220       0.04056547        6 
H       1.73306657       3.21444316      -0.32397743        1 
H       3.36284741      -2.15293363      -0.90964856        1 
H      -4.19865365      -0.93833512       0.22502017        1 
H       0.69606673       3.91404534       0.94635521        1 
H       2.14340657       2.95983197       1.40117309        1 
H       3.51527342      -2.74177762       0.77655070        1 
H       3.71200845      -1.00097205       0.40034022        1 
H      -2.87839896      -3.04338119       0.28805823        1 
H      -3.02732272       1.24220202       0.01727334        1 
H      -0.41039327      -2.95315006       0.10773016        1 
