24
Lattice="0.0 0.0 0.0 0.0 0.0 0.0 0.0 0.0 0.0" Properties=species:S:1:pos:R:3:Z:I:1 pbc="F F F"
C       0.84448500      -0.68561139      -0.16860439        6 
C       0.71568327       0.68175793       0.12658056        6 
C      -0.25515497      -1.68449150       0.03571988        6 
C      -0.59841919       1.37879740       0.34385110        6 
O      -1.46741196      -1.23403227      -0.33287951        8 
O      -0.07607271      -2.76556936       0.54636124        8 
O      -1.27781285       1.50825030      -0.80632391        8 
O      -0.94328352       1.86833163       1.39255406        8 
C      -2.56121871       2.15241024      -0.71233451        6 
C      -2.57909857      -2.10694416      -0.05382209        6 
C       2.11731785      -1.21338103      -0.41485152        6 
C       3.23957632      -0.39517023      -0.42275656        6 
C       3.10986729       0.95827219      -0.11511770        6 
C       1.85512589       1.48861977       0.16708236        6 
H      -3.21786580       1.58890303      -0.04696492        1 
H      -2.47285301      -3.04548159      -0.59951315        1 
H       3.98310658       1.59960012      -0.08995696        1 
H      -2.45484624       3.16994509      -0.33369380        1 
H      -2.95574900       2.15768066      -1.72583838        1 
H      -3.46003888      -1.56590549      -0.39210373        1 
H      -2.63989807      -2.31576971       1.01510270        1 
H       4.21416260      -0.81672487      -0.63900034        1 
H       1.74753305       2.53780881       0.41533519        1 
H       2.21149330      -2.27954387      -0.58049685        1 
