24
Lattice="0.0 0.0 0.0 0.0 0.0 0.0 0.0 0.0 0.0" Properties=species:S:1:pos:R:3:Z:I:1 pbc="F F F"
C       0.63182111      -0.67052000      -0.02299825        6 
C      -0.77074406      -0.71742465      -0.07480799        6 
C       1.32445926       0.64618690      -0.11041177        6 
C      -1.62366536       0.50388822      -0.28696471        6 
O       2.64447556       0.55045978       0.15112614        8 
O       0.78228820       1.68897825      -0.39700386        8 
O      -1.84117051       1.15371541       0.86752638        8 
O      -2.10262798       0.80923455      -1.34936630        8 
C      -2.58177745       2.38535982       0.75970492        6 
C       3.39362696       1.77536935       0.05497160        6 
C       1.35308929      -1.86357948       0.11444776        6 
C       0.69392069      -3.08564328       0.19024835        6 
C      -0.69811271      -3.12806249       0.13324862        6 
C      -1.42417285      -1.94823320      -0.00293231        6 
H      -2.04115644       3.08487675       0.12089122        1 
H       3.32743842       2.18373645      -0.95461435        1 
H      -1.21876474      -4.07729273       0.19073295        1 
H      -3.57356438       2.20165037       0.34392333        1 
H      -2.65506965       2.76742361       1.77533818        1 
H       4.41957483       1.50486046       0.29408822        1 
H       3.01367219       2.51066194       0.76568440        1 
H       1.26398205      -4.00178639       0.29187098        1 
H      -2.50606218      -1.97913776      -0.05952910        1 
H       2.43279407      -1.82132665       0.15731106        1 
