24
Lattice="0.0 0.0 0.0 0.0 0.0 0.0 0.0 0.0 0.0" Properties=species:S:1:pos:R:3:Z:I:1 pbc="F F F"
C       0.73841963       0.48954357       0.15338965        6 
C      -0.66468041       0.53007276      -0.03658907        6 
C       1.52123967      -0.78984838       0.02520442        6 
C      -1.58772980      -0.63083357       0.21990058        6 
O       2.84015068      -0.53157726      -0.17752444        8 
O       1.09176908      -1.91189889       0.09319967        8 
O      -2.68394300      -0.55747742      -0.57689109        8 
O      -1.42024954      -1.50068588       1.03144937        8 
C      -3.67028256      -1.58470298      -0.37116889        6 
C       3.68403290      -1.68965675      -0.29513667        6 
C       1.44436343       1.69774082       0.20168433        6 
C       0.79816682       2.92487395       0.08813340        6 
C      -0.57211769       2.96156244      -0.14234531        6 
C      -1.29105701       1.77154866      -0.19815772        6 
H      -3.23860164      -2.56913629      -0.55753277        1 
H       3.63675858      -2.29077986       0.61423132        1 
H      -1.08652829       3.90806786      -0.26289364        1 
H      -4.05206266      -1.54964908       0.65077108        1 
H      -4.46322141      -1.37127200      -1.08477184        1 
H       4.68830837      -1.30039085      -0.44819136        1 
H       3.37627041      -2.30306185      -1.14354651        1 
H       1.37029836       3.84295799       0.15337732        1 
H      -2.36304989       1.79424434      -0.34118359        1 
H       2.51873826       1.66351045       0.31030797        1 
