24
Lattice="0.0 0.0 0.0 0.0 0.0 0.0 0.0 0.0 0.0" Properties=species:S:1:pos:R:3:Z:I:1 pbc="F F F"
C       0.86599346      -0.70473511      -0.01032202        6 
C       0.82225683       0.69355442       0.08738255        6 
C      -0.37252258      -1.53183279      -0.15203277        6 
C      -0.47635863       1.42789221       0.25177399        6 
O      -1.31071532      -1.18349386       0.75033035        8 
O      -0.52929311      -2.38549234      -0.99091022        8 
O      -1.22565128       1.34436435      -0.86564537        8 
O      -0.82081166       1.99279148       1.25843898        8 
C      -2.54297998       1.92211460      -0.78672220        6 
C      -2.58494732      -1.84359204       0.63044768        6 
C       2.09922389      -1.35319538      -0.10931485        6 
C       3.28274300      -0.62534833      -0.06294449        6 
C       3.23910407       0.76304121       0.05800932        6 
C       2.01349985       1.41815435       0.13802891        6 
H      -3.13119394       1.41128211      -0.02218621        1 
H      -3.02579209      -1.63865561      -0.34666199        1 
H       4.15831905       1.33608772       0.09118582        1 
H      -2.48231243       2.98365957      -0.54398640        1 
H      -2.98170245       1.77688576      -1.77119338        1 
H      -3.19888107      -1.42931249       1.42690014        1 
H      -2.47004923      -2.92124255       0.75365981        1 
H       4.23500645      -1.13869597      -0.12631733        1 
H       1.97398074       2.49628876       0.23855860        1 
H       2.11573102      -2.43035358      -0.22396941        1 
