24
Lattice="0.0 0.0 0.0 0.0 0.0 0.0 0.0 0.0 0.0" Properties=species:S:1:pos:R:3:Z:I:1 pbc="F F F"
C       0.82366991      -0.68345791      -0.13679930        6 
C       0.73483308       0.68938866       0.16312447        6 
C      -0.31967288      -1.64855651      -0.05471755        6 
C      -0.55124907       1.45948949       0.24177312        6 
O      -1.46807741      -1.07577225       0.35068939        8 
O      -0.20787024      -2.84035425      -0.23164186        8 
O      -1.24688577       1.35776571      -0.90534335        8 
O      -0.86592574       2.17310741       1.16277873        8 
C      -2.51327849       2.03845972      -0.93582733        6 
C      -2.59274177      -1.95578431       0.52470194        6 
C       2.08547814      -1.25741122      -0.32633914        6 
C       3.24141151      -0.49179042      -0.23207829        6 
C       3.15077538       0.85912559       0.09600395        6 
C       1.90237306       1.44272265       0.29403930        6 
H      -3.16424573       1.66304149      -0.14413930        1 
H      -2.82190473      -2.47115586      -0.40900800        1 
H       4.04759308       1.45975848       0.19428190        1 
H      -2.37588652       3.11321399      -0.80655709        1 
H      -2.93490146       1.82089501      -1.91453841        1 
H      -3.41755912      -1.31251371       0.82289430        1 
H      -2.38150876      -2.69299667       1.30061373        1 
H       4.20888717      -0.95403618      -0.38940848        1 
H       1.81935555       2.49475062       0.53832594        1 
H       2.13661478      -2.32066914      -0.52447570        1 
