24
Lattice="0.0 0.0 0.0 0.0 0.0 0.0 0.0 0.0 0.0" Properties=species:S:1:pos:R:3:Z:I:1 pbc="F F F"
C       0.71283553       0.62255407      -0.03492983        6 
C      -0.68749809       0.64869825       0.07739247        6 
C       1.41780717      -0.68138662      -0.22760959        6 
C      -1.47071181      -0.60504440       0.33365103        6 
O       2.66862075      -0.66169255       0.27431890        8 
O       0.93970794      -1.63464706      -0.79425041        8 
O      -2.53563979      -0.69775474      -0.48528141        8 
O      -1.21672953      -1.39758341       1.20611849        8 
C      -3.36984262      -1.85803149      -0.29745630        6 
C       3.42352431      -1.87781805       0.11056676        6 
C       1.41996792       1.82445935      -0.10222754        6 
C       0.74500830       3.04300706      -0.07512600        6 
C      -0.64417836       3.06663277       0.01598423        6 
C      -1.35701134       1.87167736       0.09104539        6 
H      -2.78600806      -2.76780420      -0.44214422        1 
H       2.90796094      -2.70897788       0.59344570        1 
H      -1.17463345       4.01168796       0.03255242        1 
H      -3.80035810      -1.86025992       0.70525530        1 
H      -4.14990450      -1.77699165      -1.05114318        1 
H       4.38196364      -1.68904435       0.58861732        1 
H       3.55730460      -2.10408333      -0.94847595        1 
H       1.30376534       3.96966853      -0.13403448        1 
H      -2.43672828       1.88250065       0.17534156        1 
H       2.49784794       1.79552818      -0.19442333        1 
