24
Lattice="0.0 0.0 0.0 0.0 0.0 0.0 0.0 0.0 0.0" Properties=species:S:1:pos:R:3:Z:I:1 pbc="F F F"
C       0.55899133      -0.73108278       0.11090085        6 
C      -0.83911644      -0.63851574       0.02947058        6 
C       1.37542461       0.51287971       0.21226647        6 
C      -1.57569169       0.65582423       0.24545296        6 
O       2.60864600       0.34774531      -0.31023451        8 
O       1.00580100       1.54084531       0.72978957        8 
O      -1.65650480       1.36972318      -0.89093796        8 
O      -2.05230200       0.98781814       1.29948750        8 
C      -2.28214629       2.66336756      -0.77189669        6 
C       3.49182883       1.47941255      -0.20218515        6 
C       1.17153544      -1.98608640       0.00929329        6 
C       0.40598096      -3.13762224      -0.13768648        6 
C      -0.98233297      -3.04241729      -0.21781963        6 
C      -1.59979717      -1.79781936      -0.12958034        6 
H      -3.30847684       2.55923395      -0.41730204        1 
H       3.07883629       2.33617732      -0.73655309        1 
H      -1.58485794      -3.93506659      -0.34269170        1 
H      -1.71721896       3.28454793      -0.07568629        1 
H      -2.26170198       3.08681594      -1.77346368        1 
H       4.42700773       1.15899012      -0.65567240        1 
H       3.64111090       1.74710147       0.84489102        1 
H       0.89057002      -4.10515370      -0.19778428        1 
H      -2.68000949      -1.72227301      -0.17655850        1 
H       2.25075067      -2.04877578       0.05085019        1 
