24
Lattice="0.0 0.0 0.0 0.0 0.0 0.0 0.0 0.0 0.0" Properties=species:S:1:pos:R:3:Z:I:1 pbc="F F F"
C      -0.59595694      -0.67716942       0.09193198        6 
C      -0.92207281       0.69113413       0.08587838        6 
C       0.78275039      -1.22204326       0.34663617        6 
C       0.07997034       1.79675946      -0.02491539        6 
O       1.27442095      -1.82290370      -0.75489259        8 
O       1.34418632      -1.19468398       1.41105439        8 
O       1.34401852       1.37141082       0.13082051        8 
O      -0.20719632       2.94134134      -0.29324807        8 
C       2.37736949       2.36175832      -0.00383267        6 
C       2.56653377      -2.44283438      -0.60831115        6 
C      -1.61882269      -1.62575554       0.00172255        6 
C      -2.95301592      -1.23597701      -0.06446920        6 
C      -3.28023216       0.11827846      -0.04837539        6 
C      -2.26844038       1.06890230       0.00582128        6 
H       2.37667059       2.77640546      -1.01315868        1 
H       3.31192321      -1.69999033      -0.32093134        1 
H      -4.31632852       0.43240638      -0.09755216        1 
H       2.22873375       3.16611840       0.71744964        1 
H       3.30684996       1.83405919       0.19732668        1 
H       2.79800996      -2.86220078      -1.58472974        1 
H       2.53013894      -3.22733914       0.14937646        1 
H      -3.73163013      -1.98792490      -0.12614549        1 
H      -2.49864448       2.12611727      -0.03121974        1 
H      -1.36332253      -2.67897481      -0.00318227        1 
