24
Lattice="0.0 0.0 0.0 0.0 0.0 0.0 0.0 0.0 0.0" Properties=species:S:1:pos:R:3:Z:I:1 pbc="F F F"
C       0.74311721       0.74885432      -0.16595485        6 
C      -0.60819435       0.55555525       0.18684657        6 
C       1.76041018      -0.34584120      -0.32874949        6 
C      -1.27578621      -0.78535194       0.05768350        6 
O       1.80403683      -1.14087495       0.74534060        8 
O       2.53791696      -0.40706717      -1.25336905        8 
O      -2.58118483      -0.63246374      -0.27493773        8 
O      -0.77741527      -1.86970389       0.23262750        8 
C      -3.34325162      -1.84756159      -0.39352454        6 
C       2.69881944      -2.26451162       0.67374951        6 
C       1.24649327       2.04734639      -0.27450327        6 
C       0.44652595       3.14992596       0.00882773        6 
C      -0.87814737       2.96211065       0.39422216        6 
C      -1.40595310       1.67689650       0.44801824        6 
H      -2.92518757      -2.48519352      -1.17374765        1 
H       2.40261784      -2.92350466      -0.14377267        1 
H      -1.50881740       3.81335234       0.62294024        1 
H      -3.34388398      -2.39235017       0.55184820        1 
H      -4.35025655      -1.53082036      -0.65615383        1 
H       2.59452018      -2.77475151       1.62822363        1 
H       3.72617185      -1.93082885       0.52065109        1 
H       0.85875161       4.14928899      -0.06908985        1 
H      -2.45247829       1.53125754       0.67805313        1 
H       2.28012228       2.17860310      -0.56996848        1 
