24
Lattice="0.0 0.0 0.0 0.0 0.0 0.0 0.0 0.0 0.0" Properties=species:S:1:pos:R:3:Z:I:1 pbc="F F F"
C      -0.58060694      -0.69559501      -0.08203467        6 
C      -0.94360732       0.66187975      -0.03651773        6 
C       0.81463721      -1.18069484      -0.36163150        6 
C       0.03320041       1.79135886       0.02659172        6 
O       1.33579444      -1.80547875       0.71090696        8 
O       1.36239253      -1.09910283      -1.43143557        8 
O       1.30623738       1.36735810       0.10812901        8 
O      -0.28133086       2.95904219       0.06238308        8 
C       2.31971135       2.38598646       0.16069601        6 
C       2.65021164      -2.36705956       0.53132428        6 
C      -1.57376456      -1.67479121       0.00122676        6 
C      -2.91662214      -1.32223604       0.10290489        6 
C      -3.28085243       0.02243077       0.12606760        6 
C      -2.29753175       1.00275384       0.06853314        6 
H       2.25601802       3.02876293      -0.71796751        1 
H       2.63947577      -3.12021919      -0.25825375        1 
H      -4.32409139       0.30582085       0.20275899        1 
H       2.20334736       2.99055380       1.06137526        1 
H       3.26541254       1.84917747       0.17516539        1 
H       2.90542238      -2.81638484       1.48824750        1 
H       3.36309833      -1.58353037       0.27057821        1 
H      -3.67374102      -2.09618864       0.16026133        1 
H      -2.55635660       2.05296175       0.11640033        1 
H      -1.29011185      -2.72033243      -0.02803862        1 
