24
Lattice="0.0 0.0 0.0 0.0 0.0 0.0 0.0 0.0 0.0" Properties=species:S:1:pos:R:3:Z:I:1 pbc="F F F"
C       1.02421009      -0.38456126       0.00102481        6 
C       0.37442274       0.84734312      -0.16011373        6 
C       0.29217512      -1.68234603      -0.20892084        6 
C      -1.11335038       0.88162917      -0.29676673        6 
O      -0.39209482      -2.04546918       0.89190165        8 
O       0.29450705      -2.29652628      -1.24352339        8 
O      -1.65357465       1.87891348       0.43402724        8 
O      -1.76216577       0.14480557      -1.00079963        8 
C      -3.08347174       2.02605178       0.33297735        6 
C      -1.23307574      -3.20982488       0.74843790        6 
C       2.40300504      -0.41733633       0.20649505        6 
C       3.13260932       0.76669337       0.26629505        6 
C       2.48730621       1.99264175       0.11179429        6 
C       1.11025213       2.03258500      -0.07998182        6 
H      -3.37249040       2.24289657      -0.69646112        1 
H      -1.97503999      -3.03543904      -0.03181968        1 
H       3.05352937       2.91563053       0.15243118        1 
H      -3.58265459       1.11340831       0.66130802        1 
H      -3.33415607       2.85762327       0.98754022        1 
H      -1.71090676      -3.34115091       1.71653642        1 
H      -0.63398978      -4.08451925       0.49177837        1 
H       4.20377105       0.73053098       0.42778385        1 
H       0.59546374       2.98050860      -0.17071966        1 
H       2.90280361      -1.37324565       0.31203316        1 
