24
Lattice="0.0 0.0 0.0 0.0 0.0 0.0 0.0 0.0 0.0" Properties=species:S:1:pos:R:3:Z:I:1 pbc="F F F"
C       0.72296442       0.56561852       0.06757061        6 
C      -0.68614302       0.58718579      -0.00641340        6 
C       1.47336584      -0.71264597      -0.15174738        6 
C      -1.51837410      -0.63004524       0.27904417        6 
O       2.78281339      -0.59016660       0.16302042        8 
O       0.98947480      -1.73775973      -0.56320306        8 
O      -2.64459753      -0.64204077      -0.46752074        8 
O      -1.25170977      -1.46856480       1.10089022        8 
C      -3.53674647      -1.74739305      -0.23072682        6 
C       3.58105852      -1.77108245      -0.03508723        6 
C       1.42086232       1.77620671       0.08222852        6 
C       0.74545723       2.99402208       0.03049867        6 
C      -0.64094657       3.01208748      -0.07601612        6 
C      -1.35002510       1.81234247      -0.08661026        6 
H      -3.03031551      -2.69170005      -0.43465221        1 
H       3.20168982      -2.59195700       0.57508077        1 
H      -1.17455220       3.95364158      -0.13665557        1 
H      -3.88549825      -1.74229355       0.80339557        1 
H      -4.36750359      -1.60008947      -0.91736826        1 
H       4.58687979      -1.49487053       0.27344077        1 
H       3.56771896      -2.06940868      -1.08467909        1 
H       1.30548185       3.92160920       0.04958590        1 
H      -2.43138028       1.81871061      -0.13353171        1 
H       2.50160766       1.75340676       0.11030232        1 
