24
Lattice="0.0 0.0 0.0 0.0 0.0 0.0 0.0 0.0 0.0" Properties=species:S:1:pos:R:3:Z:I:1 pbc="F F F"
C      -0.23510307      -0.78300324      -0.03427737        6 
C      -1.04335461       0.36655863       0.13616813        6 
C       1.23551930      -0.83468253       0.27018194        6 
C      -0.58446114       1.79431747      -0.00407923        6 
O       1.85689637      -1.75922281      -0.50136847        8 
O       1.80415203      -0.18618474       1.10996914        8 
O       0.73790497       1.92607625      -0.14539799        8 
O      -1.35503669       2.72348725      -0.11277419        8 
C       1.22794037       3.26009974      -0.35925336        6 
C       3.25376410      -1.96437848      -0.22745545        6 
C      -0.85884117      -2.02443549      -0.21727503        6 
C      -2.24476960      -2.15393098      -0.20037221        6 
C      -3.03701963      -1.03135291       0.01295176        6 
C      -2.43457986       0.21475483       0.14955772        6 
H       0.82085035       3.67399018      -1.28339799        1 
H       3.81192899      -1.03926723      -0.37867706        1 
H      -4.11709268      -1.11681819       0.04383657        1 
H       0.95150788       3.90460093       0.47624025        1 
H       2.30888836       3.15913208      -0.42300117        1 
H       3.57773683      -2.72735672      -0.93195252        1 
H       3.39563263      -2.30338674       0.80016966        1 
H      -2.69656969      -3.12970882      -0.33837008        1 
H      -3.03669424       1.11021088       0.23338124        1 
H      -0.23824492      -2.90136752      -0.34395212        1 
