24
Lattice="0.0 0.0 0.0 0.0 0.0 0.0 0.0 0.0 0.0" Properties=species:S:1:pos:R:3:Z:I:1 pbc="F F F"
C       0.92977240      -0.65598472      -0.07878936        6 
C       0.65429779       0.70507525       0.12483235        6 
C      -0.11396705      -1.72434470      -0.03509561        6 
C      -0.73255241       1.22082853       0.39370120        6 
O      -1.34516201      -1.25036774      -0.30927057        8 
O       0.11076711      -2.88331283       0.22384013        8 
O      -1.28934306       1.71823348      -0.72361094        8 
O      -1.24706856       1.25424014       1.48363062        8 
C      -2.63102512       2.22287568      -0.58623586        6 
C      -2.43251372      -2.18486205      -0.18612489        6 
C       2.25284616      -1.07115838      -0.26313971        6 
C       3.28979402      -0.14711350      -0.27518347        6 
C       3.01247612       1.20532803      -0.08058408        6 
C       1.70102245       1.62730163       0.12010614        6 
H      -3.29555137       1.43117969      -0.23641392        1 
H      -2.29803773      -3.01935139      -0.87552108        1 
H       3.81608220       1.93276669      -0.08170300        1 
H      -2.65919073       3.05381345       0.12020541        1 
H      -2.91872306       2.55383676      -1.58149991        1 
H      -3.32775149      -1.62048094      -0.43730629        1 
H      -2.49114583      -2.56340625       0.83527711        1 
H       4.30960193      -0.47972620      -0.42826613        1 
H       1.48603322       2.67720773       0.28112181        1 
H       2.44501900      -2.12888109      -0.39371878        1 
