24
Lattice="0.0 0.0 0.0 0.0 0.0 0.0 0.0 0.0 0.0" Properties=species:S:1:pos:R:3:Z:I:1 pbc="F F F"
C       0.81998165      -0.66882574       0.08858447        6 
C       0.86904197       0.72903589      -0.00023812        6 
C      -0.47916099      -1.39723793       0.28170169        6 
C      -0.37871245       1.53592409      -0.18513097        6 
O      -1.21714389      -1.38802755      -0.84617516        8 
O      -0.83498124      -1.89610392       1.31873731        8 
O      -1.27677226       1.28594355       0.78735037        8 
O      -0.58516658       2.26607934      -1.12304398        8 
C      -2.57202813       1.89576803       0.62883712        6 
C      -2.52021792      -1.99725958      -0.75444000        6 
C       2.00645122      -1.40233593       0.12959491        6 
C       3.23545670      -0.75503514       0.05018151        6 
C       3.28507782       0.63412492      -0.05867127        6 
C       2.10553610       1.37014633      -0.09941435        6 
H      -2.48595125       2.98312219       0.63823679        1 
H      -2.43046327      -3.05083871      -0.48673264        1 
H       4.24032547       1.14193584      -0.12039999        1 
H      -3.02439353       1.57886324      -0.31235191        1 
H      -3.15820030       1.54956802       1.47691239        1 
H      -2.95986902      -1.88793813      -1.74311463        1 
H      -3.12467694      -1.48627637      -0.00320888        1 
H       4.15121576      -1.33407899       0.07538944        1 
H       2.13195692       2.44725813      -0.21237615        1 
H       1.96015832      -2.48097890       0.22473090        1 
