24
Lattice="0.0 0.0 0.0 0.0 0.0 0.0 0.0 0.0 0.0" Properties=species:S:1:pos:R:3:Z:I:1 pbc="F F F"
C       0.86572587      -0.74404848       0.02898592        6 
C       0.77303283       0.64890184       0.16255964        6 
C      -0.33233086      -1.60530057      -0.22975639        6 
C      -0.54294710       1.34389866       0.38367537        6 
O      -1.32499542      -1.38046833       0.64795113        8 
O      -0.41672364      -2.37291439      -1.15897675        8 
O      -1.07342082       1.75660245      -0.78510667        8 
O      -1.06777197       1.49715317       1.45564577        8 
C      -2.36070967       2.40139172      -0.70187962        6 
C      -2.55844048      -2.08552991       0.41215588        6 
C       2.12371287      -1.34218059      -0.08892370        6 
C       3.28123038      -0.57673233      -0.01932394        6 
C       3.18773992       0.80724038       0.11888572        6 
C       1.93883507       1.41545255       0.20492957        6 
H      -3.09614877       1.71974740      -0.27162490        1 
H      -2.95849830      -1.83066355      -0.57057283        1 
H       4.08512311       1.41359934       0.15768396        1 
H      -2.29914311       3.29949795      -0.08585578        1 
H      -2.62331871       2.65436347      -1.72640960        1 
H      -3.23097168      -1.75705207       1.20112670        1 
H      -2.39738108      -3.16304175       0.46590036        1 
H       4.25085215      -1.05545217      -0.08948550        1 
H       1.86342366       2.49135349       0.31152740        1 
H       2.17929399      -2.41275047      -0.24550760        1 
