24
Lattice="0.0 0.0 0.0 0.0 0.0 0.0 0.0 0.0 0.0" Properties=species:S:1:pos:R:3:Z:I:1 pbc="F F F"
C       0.65270065      -0.79335319       0.18875778        6 
C      -0.67605347      -0.55899326      -0.19184210        6 
C       1.61265601       0.33605759       0.44062646        6 
C      -1.21883681       0.83502905      -0.20885635        6 
O       2.15364073       0.76550278      -0.70604404        8 
O       1.90407258       0.74980566       1.53654017        8 
O      -2.42048631       0.89163056       0.40155815        8 
O      -0.69299209       1.78576011      -0.73659878        8 
C      -3.06656016       2.17940951       0.40373612        6 
C       3.03310392       1.90254174      -0.60675466        6 
C       1.11648196      -2.10359880       0.31012101        6 
C       0.27114423      -3.17737609       0.04201174        6 
C      -1.04977988      -2.94724038      -0.33859093        6 
C      -1.52737874      -1.64386858      -0.42757454        6 
H      -2.45045712       2.91106957       0.92794675        1 
H       2.47759894       2.76678114      -0.24025367        1 
H      -1.71147166      -3.78023715      -0.54624575        1 
H      -3.24060159       2.52037370      -0.61792453        1 
H      -4.00844690       2.02711454       0.92573141        1 
H       3.38880493       2.07901641      -1.61893180        1 
H       3.86435743       1.68725696       0.06587387        1 
H       0.64344714      -4.19139699       0.13262003        1 
H      -2.56395829      -1.45846354      -0.67947572        1 
H       2.14215334      -2.27981874       0.61218975        1 
