24
Lattice="0.0 0.0 0.0 0.0 0.0 0.0 0.0 0.0 0.0" Properties=species:S:1:pos:R:3:Z:I:1 pbc="F F F"
C       0.84730783      -0.69993488       0.04584129        6 
C       0.79072127       0.69527393      -0.10473398        6 
C      -0.36373204      -1.57498873       0.07876494        6 
C      -0.50328925       1.44713124      -0.20473246        6 
O      -1.35973728      -1.08550890      -0.68622675        8 
O      -0.43731283      -2.61624551       0.68716880        8 
O      -1.24173736       1.28792413       0.91153383        8 
O      -0.83104952       2.12764446      -1.14392559        8 
C      -2.54558679       1.89728407       0.89668821        6 
C      -2.59312300      -1.82557763      -0.68041326        6 
C       2.08833608      -1.33035548       0.16827103        6 
C       3.26467450      -0.59166529       0.11111330        6 
C       3.20782710       0.78950706      -0.06836898        6 
C       1.97542838       1.42818961      -0.17821652        6 
H      -2.46414408       2.97742157       0.76742425        1 
H      -2.42717337      -2.84802530      -1.02173029        1 
H       4.12117343       1.37052848      -0.12088313        1 
H      -3.14592379       1.48303943       0.08456225        1 
H      -2.98730428       1.65888186       1.86157727        1 
H      -3.25029536      -1.29448057      -1.36537118        1 
H      -3.01671049      -1.84577649       0.32533471        1 
H       4.22144346      -1.09275063       0.20001111        1 
H       1.92313236       2.50160278      -0.31543249        1 
H       2.11141082      -2.40517232       0.30003220        1 
