24
Lattice="0.0 0.0 0.0 0.0 0.0 0.0 0.0 0.0 0.0" Properties=species:S:1:pos:R:3:Z:I:1 pbc="F F F"
C       0.85611651      -0.69041971       0.04366907        6 
C       0.72161973       0.68645502      -0.16632142        6 
C      -0.30253465      -1.61323207      -0.20456439        6 
C      -0.63434837       1.27809143      -0.42329621        6 
O      -1.21071653      -1.55134627       0.78991420        8 
O      -0.43697848      -2.27739586      -1.20012208        8 
O      -1.12298679       1.86306021       0.68561414        8 
O      -1.20465254       1.26335477      -1.48603980        8 
C      -2.43392898       2.44982928       0.56408103        6 
C      -2.41423467      -2.32278252       0.59376598        6 
C       2.11539047      -1.23135158       0.30461455        6 
C       3.22922795      -0.40190560       0.39222939        6 
C       3.09269318       0.97077390       0.19227237        6 
C       1.83986425       1.51479095      -0.07789221        6 
H      -2.43435697       3.23509230      -0.19328502        1 
H      -2.93727525      -1.98318954      -0.30137388        1 
H       3.95982620       1.61821064       0.24807783        1 
H      -3.16482192       1.68666032       0.29220383        1 
H      -2.65689099       2.86107687       1.54581345        1 
H      -3.01572255      -2.14818282       1.48300524        1 
H      -2.17625181      -3.38235064       0.49231671        1 
H       4.20256184      -0.82810970       0.60525261        1 
H       1.72640997       2.58243370      -0.22492586        1 
H       2.21852063      -2.30275886       0.43209347        1 
