24
Lattice="0.0 0.0 0.0 0.0 0.0 0.0 0.0 0.0 0.0" Properties=species:S:1:pos:R:3:Z:I:1 pbc="F F F"
C       0.76861727       0.45190013       0.23391872        6 
C      -0.49751777       0.92357883      -0.14079497        6 
C       1.05938954      -1.01900364       0.29102542        6 
C      -1.65618873       0.00478524      -0.41281417        6 
O       2.09001809      -1.32682768      -0.52482221        8 
O       0.49475131      -1.82799286       0.98506307        8 
O      -2.13784327      -0.52665896       0.71660032        8 
O      -2.12535756      -0.18097987      -1.51088036        8 
C      -3.21208961      -1.47597007       0.56956553        6 
C       2.48811380      -2.71231232      -0.54123728        6 
C       1.80784184       1.36207384       0.44451849        6 
C       1.57925357       2.72988266       0.33620753        6 
C       0.32151912       3.19658573      -0.04228753        6 
C      -0.70742288       2.29451961      -0.29453287        6 
H      -4.06799936      -1.01365388       0.07575097        1 
H       2.80254904      -3.03177322       0.45357341        1 
H       0.14332224       4.26025721      -0.14946421        1 
H      -2.87435398      -2.33379182      -0.01350888        1 
H      -3.46529510      -1.77960574       1.58229763        1 
H       3.31676213      -2.76463871      -1.24347777        1 
H       1.66082744      -3.34004849      -0.87543731        1 
H       2.38601287       3.42791252       0.52626805        1 
H      -1.68185125       2.64823186      -0.61047514        1 
H       2.79476981       0.99009709       0.69074914        1 
