24
Lattice="0.0 0.0 0.0 0.0 0.0 0.0 0.0 0.0 0.0" Properties=species:S:1:pos:R:3:Z:I:1 pbc="F F F"
C       0.75662160      -0.67733196       0.14211088        6 
C       0.84896945       0.71124020      -0.05549036        6 
C      -0.54385969      -1.42107019       0.24289004        6 
C      -0.32528122       1.63566697      -0.04347653        6 
O      -1.23502225      -1.34497736      -0.91019130        8 
O      -0.89266824      -2.06443491       1.20113606        8 
O      -1.40510582       1.08339437       0.54246382        8 
O      -0.30264113       2.77126523      -0.45830806        8 
C      -2.59561392       1.88920753       0.58374149        6 
C      -2.51937285      -1.99556138      -0.91814743        6 
C       1.92055217      -1.44346971       0.21617602        6 
C       3.16955373      -0.84851084       0.06362399        6 
C       3.26307430       0.52395533      -0.16004464        6 
C       2.10886776       1.29709618      -0.21169335        6 
H      -2.41953002       2.79926960       1.15885625        1 
H      -2.40800661      -3.06642433      -0.74168860        1 
H       4.23246794       0.99236490      -0.28265580        1 
H      -2.90879964       2.15537452      -0.42688645        1 
H      -3.34511649       1.26902332       1.07029870        1 
H      -2.93033095      -1.81053462      -1.90798689        1 
H      -3.16354902      -1.57008811      -0.14671691        1 
H       4.06505003      -1.45683945       0.11683047        1 
H       2.16125756       2.36778386      -0.36383129        1 
H       1.83796729      -2.51072191       0.38433622        1 
