24
Lattice="0.0 0.0 0.0 0.0 0.0 0.0 0.0 0.0 0.0" Properties=species:S:1:pos:R:3:Z:I:1 pbc="F F F"
C       0.85446321      -0.74537688       0.00704844        6 
C       0.77908646       0.64433926       0.17480732        6 
C      -0.35931651      -1.57950126      -0.27093522        6 
C      -0.53314003       1.34575326       0.39545345        6 
O      -1.30256575      -1.44105583       0.67589729        8 
O      -0.49415657      -2.25501216      -1.26330712        8 
O      -1.04384531       1.79191204      -0.76974171        8 
O      -1.07272345       1.47681747       1.46335784        8 
C      -2.32404102       2.45130750      -0.68804727        6 
C      -2.54795837      -2.12661564       0.44140783        6 
C       2.10428073      -1.35695769      -0.12245845        6 
C       3.27105452      -0.60748354      -0.03113290        6 
C       3.19491305       0.77370798       0.14090580        6 
C       1.95358982       1.39579839       0.23748234        6 
H      -3.07412385       1.76984602      -0.28373520        1 
H      -2.99931923      -1.78318338      -0.49076508        1 
H       4.09998629       1.36715034       0.19671449        1 
H      -2.25903454       3.33428891      -0.05086102        1 
H      -2.56957041       2.73109983      -1.70983882        1 
H      -3.17734802      -1.87521483       1.29180462        1 
H      -2.38500804      -3.20377860       0.38641072        1 
H       4.23477591      -1.09663907      -0.11039285        1 
H       1.89112108       2.46996526       0.36715636        1 
H       2.14864914      -2.42410024      -0.30453468        1 
