24
Lattice="0.0 0.0 0.0 0.0 0.0 0.0 0.0 0.0 0.0" Properties=species:S:1:pos:R:3:Z:I:1 pbc="F F F"
C       0.77754375      -0.69056139       0.07433991        6 
C       0.71175860       0.70304235       0.18204050        6 
C      -0.43472449      -1.54656403       0.31654591        6 
C      -0.60505063       1.38596882       0.41426791        6 
O      -1.07436986      -1.82031020      -0.83892433        8 
O      -0.80012052      -1.92960291       1.39723522        8 
O      -1.02692740       2.00184083      -0.70875658        8 
O      -1.20401280       1.40815566       1.45960399        8 
C      -2.28601851       2.69833799      -0.61096728        6 
C      -2.26980194      -2.62104369      -0.72368685        6 
C       2.00019607      -1.30893584      -0.18790803        6 
C       3.15434762      -0.54571621      -0.33714998        6 
C       3.08913248       0.84227156      -0.23073536        6 
C       1.86808603       1.46501019       0.01226120        6 
H      -3.08276109       2.00387469      -0.34056220        1 
H      -2.03465632      -3.59771992      -0.29824872        1 
H       3.98530895       1.44041628      -0.34666367        1 
H      -2.22849945       3.48869262       0.13898241        1 
H      -2.46009578       3.11671300      -1.59950961        1 
H      -2.64536572      -2.72414651      -1.73903585        1 
H      -3.00170325      -2.11962966      -0.08888738        1 
H       4.10102088      -1.03461630      -0.53557615        1 
H       1.80791647       2.54525088       0.07248608        1 
H       2.04521697      -2.38892928      -0.26963438        1 
