24
Lattice="0.0 0.0 0.0 0.0 0.0 0.0 0.0 0.0 0.0" Properties=species:S:1:pos:R:3:Z:I:1 pbc="F F F"
C       0.66980556       0.63478898       0.04515366        6 
C      -0.71917951       0.75176924      -0.12450071        6 
C       1.29649087      -0.71747074       0.00007084        6 
C      -1.61022696      -0.43873780      -0.36206438        6 
O       2.64386969      -0.66203910      -0.03215232        8 
O       0.68084691      -1.75924523      -0.00211100        8 
O      -2.04445672      -0.95749299       0.79671691        8 
O      -1.95137424      -0.81532922      -1.45499134        8 
C      -2.83104657      -2.15996755       0.68829408        6 
C       3.32044015      -1.93193514      -0.07959936        6 
C       1.44056042       1.78979400       0.22187584        6 
C       0.83829978       3.04290279       0.24371524        6 
C      -0.54046681       3.15441838       0.07118773        6 
C      -1.31418593       2.01213624      -0.11498687        6 
H      -3.73325895      -1.97902986       0.10195897        1 
H       3.09621561      -2.51721645       0.81362979        1 
H      -1.01433165       4.12932610       0.08038123        1 
H      -2.23842305      -2.94460237       0.21592674        1 
H      -3.08455789      -2.43174865       1.71043311        1 
H       4.38026420      -1.69233622      -0.12581471        1 
H       3.01280257      -2.49339930      -0.96279117        1 
H       1.44321023       3.93040126       0.38757838        1 
H      -2.38542641       2.09525000      -0.25700026        1 
H       2.51072047       1.69151778       0.34370423        1 
