24
Lattice="0.0 0.0 0.0 0.0 0.0 0.0 0.0 0.0 0.0" Properties=species:S:1:pos:R:3:Z:I:1 pbc="F F F"
C      -0.44923325      -0.72758664      -0.02831509        6 
C      -0.97990756       0.57686611      -0.09598383        6 
C       0.98253582      -1.07368214      -0.32273768        6 
C      -0.17596311       1.83786363       0.02129480        6 
O       1.48568221      -1.89515720       0.62370037        8 
O       1.58768780      -0.73211837      -1.30607355        8 
O       1.14298876       1.61652421       0.10759141        8 
O      -0.67150211       2.93725868       0.13140055        8 
C       1.97897038       2.77624111       0.25938728        6 
C       2.82229880      -2.37666476       0.38776278        6 
C      -1.32227432      -1.81214818       0.10874643        6 
C      -2.70170943      -1.62628868       0.14051729        6 
C      -3.22847430      -0.34180329       0.03949075        6 
C      -2.36868673       0.74700098      -0.05284350        6 
H       1.80804333       3.47613764      -0.55906925        1 
H       2.86017336      -2.95818797      -0.53497097        1 
H      -4.30075604      -0.18550545       0.05831426        1 
H       1.77227139       3.27304302       1.20886494        1 
H       2.99847568       2.39834682       0.23517011        1 
H       3.06043173      -3.00098793       1.24593156        1 
H       3.51929980      -1.54093605       0.31333903        1 
H      -3.35848104      -2.48352902       0.23669480        1 
H      -2.75478316       1.75816503      -0.06888016        1 
H      -0.91107867      -2.81215237       0.16858902        1 
