24
Lattice="0.0 0.0 0.0 0.0 0.0 0.0 0.0 0.0 0.0" Properties=species:S:1:pos:R:3:Z:I:1 pbc="F F F"
C       1.09577189       0.15697210       0.13283829        6 
C      -0.12386577       0.84114684      -0.04993427        6 
C       1.23662440      -1.33702883       0.13270824        6 
C      -1.43352182       0.17903153       0.25146925        6 
O       0.36071958      -1.92123419      -0.70077024        8 
O       2.12813749      -1.92990068       0.69441293        8 
O      -2.47386633       0.87276085      -0.26396063        8 
O      -1.57210746      -0.83710161       0.88788594        8 
C      -3.78176360       0.34153817       0.01353113        6 
C       0.38123113      -3.35813302      -0.73943937        6 
C       2.29319560       0.87272202       0.12633372        6 
C       2.29963529       2.25034046      -0.07869063        6 
C       1.10081918       2.92283722      -0.29517490        6 
C      -0.10267596       2.22273588      -0.26477365        6 
H      -3.88811826      -0.65360619      -0.42118800        1 
H       1.36749960      -3.72188976      -1.03111916        1 
H       1.09653191       3.99301628      -0.46655393        1 
H      -3.95043304       0.28227178       1.08979142        1 
H      -4.47967315       1.03684879      -0.44777651        1 
H      -0.36683079      -3.63697899      -1.47818784        1 
H       0.11859653      -3.76140836       0.23998034        1 
H       3.23924462       2.79041213      -0.08223887        1 
H      -1.04131540       2.74751276      -0.38085480        1 
H       3.21857280       0.32660708       0.26173945        1 
