24
Lattice="0.0 0.0 0.0 0.0 0.0 0.0 0.0 0.0 0.0" Properties=species:S:1:pos:R:3:Z:I:1 pbc="F F F"
C       0.69226292       0.66767137       0.07932080        6 
C      -0.70601831       0.57955786       0.18802054        6 
C       1.60650320      -0.50674404       0.29535787        6 
C      -1.40388720      -0.74638487       0.24403947        6 
O       2.27342631      -0.81140699      -0.83989579        8 
O       1.75175878      -1.08577009       1.33816330        8 
O      -2.50946300      -0.73128347      -0.54003547        8 
O      -1.07859699      -1.69987879       0.90481679        8 
C      -3.29983343      -1.93459633      -0.52982157        6 
C       3.19367480      -1.91768860      -0.74329838        6 
C       1.28773871       1.91437740      -0.12635550        6 
C       0.51508414       3.07031712      -0.18545506        6 
C      -0.86982290       2.98695978      -0.06005119        6 
C      -1.47490297       1.74486866       0.09394265        6 
H      -2.71139648      -2.78034050      -0.88863277        1 
H       3.97174267      -1.70272050      -0.00938389        1 
H      -1.47867284       3.88240522      -0.10346147        1 
H      -3.65677083      -2.14941315       0.47871869        1 
H      -4.13386256      -1.73709410      -1.19968172        1 
H       3.62097517      -2.02548366      -1.73761717        1 
H       2.66329344      -2.82441673      -0.44906153        1 
H       0.99442142       4.03159313      -0.32994194        1 
H      -2.55328035       1.66512897       0.13643843        1 
H       2.36460226       1.97436019      -0.22930593        1 
