24
Lattice="0.0 0.0 0.0 0.0 0.0 0.0 0.0 0.0 0.0" Properties=species:S:1:pos:R:3:Z:I:1 pbc="F F F"
C       1.05063661      -0.46507371      -0.00802505        6 
C       0.42947677       0.79267439      -0.06464616        6 
C       0.27814673      -1.74660811      -0.09475457        6 
C      -1.04197809       0.90025693      -0.30817409        6 
O      -0.73646175      -1.77018172       0.78869936        8 
O       0.55238221      -2.65455683      -0.84012406        8 
O      -1.59492022       1.89681800       0.41159549        8 
O      -1.66000304       0.21657025      -1.08942108        8 
C      -3.00326858       2.11700673       0.20009630        6 
C      -1.64474300      -2.88305960       0.67563239        6 
C       2.43774782      -0.54718754       0.10893267        6 
C       3.20585410       0.61007991       0.20150228        6 
C       2.58864884       1.85907774       0.16747631        6 
C       1.20549065       1.94925684       0.03820220        6 
H      -3.19247228       2.40250723      -0.83590778        1 
H      -2.09396334      -2.89328955      -0.31845139        1 
H       3.18277574       2.76273759       0.23745123        1 
H      -3.56715762       1.21231990       0.43111320        1 
H      -3.27358859       2.92309954       0.87812743        1 
H      -2.40181029      -2.71566504       1.43829643        1 
H      -1.12219982      -3.82438795       0.85144681        1 
H       4.28259638       0.53553491       0.29996424        1 
H       0.71952473       2.91575309       0.00159094        1 
H       2.90407738      -1.52478536       0.13036633        1 
