24
Lattice="0.0 0.0 0.0 0.0 0.0 0.0 0.0 0.0 0.0" Properties=species:S:1:pos:R:3:Z:I:1 pbc="F F F"
C       0.80081464      -0.68245663      -0.10391273        6 
C       0.84529907       0.71196359       0.05501943        6 
C      -0.48223163      -1.45186452      -0.19780906        6 
C      -0.38110111       1.56458080       0.10132088        6 
O      -1.25974051      -1.23855048       0.88239109        8 
O      -0.77000481      -2.19567358      -1.10227656        8 
O      -1.33163237       1.11383590      -0.74194788        8 
O      -0.50306374       2.55260918       0.78497459        8 
C      -2.58712185       1.81580782      -0.72292139        6 
C      -2.54902786      -1.87917083       0.86773707        6 
C       1.99056727      -1.40668983      -0.18831844        6 
C       3.21805899      -0.76021012      -0.07773713        6 
C       3.26300248       0.61997993       0.11279338        6 
C       2.08109038       1.35061561       0.17972248        6 
H      -3.03278338       1.76724725       0.27221532        1 
H      -3.12864749      -1.54350418       0.00597544        1 
H       4.21633933       1.12710922       0.20367311        1 
H      -2.44532878       2.86032169      -1.00305528        1 
H      -3.21290372       1.30536986      -1.45156697        1 
H      -3.03037313      -1.58014360       1.79606174        1 
H      -2.43838458      -2.96360742       0.82435360        1 
H       4.13565925      -1.33389449      -0.13747823        1 
H       2.09903175       2.42420170       0.32121870        1 
H       1.94352525      -2.47946530      -0.33282532        1 
