24
Lattice="0.0 0.0 0.0 0.0 0.0 0.0 0.0 0.0 0.0" Properties=species:S:1:pos:R:3:Z:I:1 pbc="F F F"
C      -0.23435167      -0.83756716      -0.00444696        6 
C      -1.09056328       0.27775173      -0.06616666        6 
C       1.22974252      -0.70801011      -0.28061926        6 
C      -0.61193301       1.69636993      -0.10277879        6 
O       1.94335462      -1.65078072       0.37038644        8 
O       1.72161109       0.10224098      -1.02835723        8 
O       0.42869891       1.89189052       0.72438044        8 
O      -1.15598330       2.57691250      -0.72574412        8 
C       1.01426326       3.20570677       0.70003551        6 
C       3.35696649      -1.66686965       0.10029130        6 
C      -0.78512302      -2.11374356       0.15021649        6 
C      -2.16452713      -2.29036599       0.22427363        6 
C      -3.01083608      -1.18837264       0.13421582        6 
C      -2.47239071       0.08793426      -0.00903628        6 
H       1.35729751       3.44306251      -0.30777270        1 
H       3.54065818      -1.84607119      -0.96031094        1 
H      -4.08588726      -1.31880150       0.18085932        1 
H       0.28871964       3.95313001       1.02455610        1 
H       1.85385043       3.15909640       1.38980762        1 
H       3.75594260      -2.48021096       0.70225748        1 
H       3.80968986      -0.71709441       0.38804834        1 
H      -2.57461343      -3.28726980       0.33843753        1 
H      -3.11709733       0.95621188      -0.06625813        1 
H      -0.12403743      -2.96943719       0.18982852        1 
