24
Lattice="0.0 0.0 0.0 0.0 0.0 0.0 0.0 0.0 0.0" Properties=species:S:1:pos:R:3:Z:I:1 pbc="F F F"
C      -0.76391899      -0.71625885       0.13040280        6 
C      -0.74247569       0.64492289      -0.19421436        6 
C       0.49732964      -1.48641190       0.39610508        6 
C       0.55399060       1.38059439      -0.38220451        6 
O       1.15512006      -1.75281086      -0.74306030        8 
O       0.87023343      -1.82503976       1.49292102        8 
O       0.91536204       2.00706338       0.75303275        8 
O       1.18768902       1.41732601      -1.40656971        8 
C       2.15376945       2.74458740       0.70343590        6 
C       2.40157366      -2.46456588      -0.61045621        6 
C      -1.98751964      -1.37031592       0.28905738        6 
C      -3.18299621      -0.68450541       0.09807529        6 
C      -3.16175141       0.67004284      -0.22889433        6 
C      -1.94526970       1.33314127      -0.36481006        6 
H       2.98192675       2.07701045       0.46172635        1 
H       3.09734468      -1.89777497       0.00962417        1 
H      -4.08971647       1.21157089      -0.37184068        1 
H       2.09650512       3.53456585      -0.04692020        1 
H       2.27724464       3.16516958       1.69841730        1 
H       2.78316169      -2.56373672      -1.62359831        1 
H       2.23372838      -3.44473058      -0.16154579        1 
H      -4.12715976      -1.20479513       0.21095392        1 
H      -1.92571630       2.38927448      -0.60739139        1 
H      -1.99803696      -2.41894590       0.56301779        1 
