24
Lattice="0.0 0.0 0.0 0.0 0.0 0.0 0.0 0.0 0.0" Properties=species:S:1:pos:R:3:Z:I:1 pbc="F F F"
C       0.58536546       0.57758641       0.16768953        6 
C      -0.77924366       0.68009857      -0.18738163        6 
C       1.35557765      -0.70071378      -0.02312369        6 
C      -1.76920698      -0.45097738      -0.27209913        6 
O       2.68354924      -0.44951440      -0.13872666        8 
O       0.90936640      -1.82004536      -0.06681078        8 
O      -1.61103313      -1.33542375       0.71834736        8 
O      -2.71280722      -0.45304092      -1.03060051        8 
C      -2.51992546      -2.44910060       0.72898572        6 
C       3.52198554      -1.60532204      -0.31078103        6 
C       1.29669799       1.75203157       0.44575635        6 
C       0.68260213       2.99938576       0.39754834        6 
C      -0.64705480       3.09882924       0.00031233        6 
C      -1.36707107       1.94406258      -0.28781416        6 
H      -3.55132673      -2.10431365       0.81879485        1 
H       3.43325643      -2.27307142       0.54764898        1 
H      -1.12861660       4.06696269      -0.07547400        1 
H      -2.40978696      -3.03153961      -0.18699444        1 
H      -2.23385822      -3.04393555       1.59324216        1 
H       4.53464720      -1.21659313      -0.39303033        1 
H       3.24363412      -2.14782663      -1.21556034        1 
H       1.25139623       3.88959711       0.63941912        1 
H      -2.41057325       2.00154106      -0.57111305        1 
H       2.34918539       1.67809555       0.67950612        1 
