24
Lattice="0.0 0.0 0.0 0.0 0.0 0.0 0.0 0.0 0.0" Properties=species:S:1:pos:R:3:Z:I:1 pbc="F F F"
C       0.56807681      -0.70961037       0.00369143        6 
C      -0.83343617      -0.66320652       0.09010280        6 
C       1.35673810       0.54738397       0.14647768        6 
C      -1.60482799       0.61525622       0.26696633        6 
O       2.66075493       0.37035301      -0.15119834        8 
O       0.89965475       1.60808304       0.50561991        8 
O      -1.63049925       1.32509935      -0.87305324        8 
O      -2.19166420       0.91427602       1.27614463        8 
C      -2.27695086       2.60951850      -0.79446283        6 
C       3.50216600       1.52740373       0.00260628        6 
C       1.20303170      -1.94672756      -0.16424697        6 
C       0.46072220      -3.12052383      -0.23915636        6 
C      -0.92837653      -3.07128627      -0.13815601        6 
C      -1.56947018      -1.84694628       0.03033380        6 
H      -3.31540474       2.49726135      -0.47985461        1 
H       3.17374072       2.32763150      -0.66217128        1 
H      -1.51289588      -3.98296376      -0.18852990        1 
H      -1.74588516       3.24541639      -0.08471010        1 
H      -2.22112246       3.02300704      -1.79890980        1 
H       4.50252164       1.19357949      -0.26349790        1 
H       3.47515210       1.88317677       1.03369248        1 
H       0.96515987      -4.07115162      -0.36768900        1 
H      -2.64900188      -1.80362402       0.11518241        1 
H       2.28225899      -1.97843009      -0.22612794        1 
