24
Lattice="0.0 0.0 0.0 0.0 0.0 0.0 0.0 0.0 0.0" Properties=species:S:1:pos:R:3:Z:I:1 pbc="F F F"
C       0.61668784      -0.66381693       0.03953278        6 
C      -0.77911831      -0.71250690      -0.11402216        6 
C       1.32474536       0.64216879      -0.08889312        6 
C      -1.63408076       0.51049915      -0.30000529        6 
O       2.65833132       0.52095818       0.07718370        8 
O       0.78369871       1.69876551      -0.32167146        8 
O      -1.78778528       1.17304617       0.85721040        8 
O      -2.18793751       0.79351314      -1.33279261        8 
C      -2.52468473       2.40782323       0.77656014        6 
C       3.42034498       1.73381492      -0.05848978        6 
C       1.32655561      -1.85753831       0.22318062        6 
C       0.66323593      -3.07944342       0.26000187        6 
C      -0.71962578      -3.12369558       0.09255742        6 
C      -1.43424186      -1.94423117      -0.09730086        6 
H      -2.00778295       3.10144185       0.11202467        1 
H       3.28817248       2.15626255      -1.05568502        1 
H      -1.24213934      -4.07349437       0.10782004        1 
H      -3.53508462       2.22915415       0.40605486        1 
H      -2.55020940       2.79534880       1.79252530        1 
H       4.45605525       1.44269049       0.10124044        1 
H       3.10676651       2.46621428       0.68681831        1 
H       1.22482415      -3.99479516       0.40648138        1 
H      -2.50900512      -1.97392542      -0.23307448        1 
H       2.40195139      -1.81676068       0.32849908        1 
