24
Lattice="0.0 0.0 0.0 0.0 0.0 0.0 0.0 0.0 0.0" Properties=species:S:1:pos:R:3:Z:I:1 pbc="F F F"
C      -0.52130162      -0.71438660       0.06297685        6 
C      -0.96740019       0.62010573       0.06119966        6 
C       0.89458564      -1.12103462       0.35816803        6 
C      -0.06724203       1.81247023      -0.01896687        6 
O       1.40731494      -1.85613005      -0.64850091        8 
O       1.47106900      -0.89374105       1.39113174        8 
O       1.22309436       1.47662076      -0.18094902        8 
O      -0.46058622       2.95677894      -0.02316275        8 
C       2.16166589       2.56254034      -0.26587853        6 
C       2.73644801      -2.36933805      -0.43650461        6 
C      -1.45434071      -1.74888522      -0.05007674        6 
C      -2.81744612      -1.47645314      -0.13188806        6 
C      -3.26314030      -0.15729680      -0.10593248        6 
C      -2.34016993       0.87929826      -0.02608713        6 
H       1.96411866       3.16698499      -1.15261447        1 
H       3.43768091      -1.54955136      -0.27524695        1 
H      -4.32231752       0.06418757      -0.16647193        1 
H       2.09442556       3.19090049       0.62279797        1 
H       3.13986207       2.09167812      -0.32988734        1 
H       2.98395284      -2.91408383      -1.34473432        1 
H       2.75516799      -3.03340988       0.42916172        1 
H      -3.52604700      -2.29319657      -0.21107680        1 
H      -2.66302859       1.91254450      -0.04669292        1 
H      -1.10615890      -2.77482889      -0.05750013        1 
