24
Lattice="0.0 0.0 0.0 0.0 0.0 0.0 0.0 0.0 0.0" Properties=species:S:1:pos:R:3:Z:I:1 pbc="F F F"
C      -0.63060978      -0.64348020       0.12215625        6 
C      -0.88914579       0.73888731       0.10303090        6 
C       0.72354543      -1.26117295       0.34301266        6 
C       0.16347055       1.79013387      -0.06775881        6 
O       1.14690345      -1.89051023      -0.77304631        8 
O       1.32575164      -1.25518330       1.38438271        8 
O       1.37149658       1.39792037       0.36351218        8 
O      -0.04246011       2.86018788      -0.59406427        8 
C       2.45603433       2.32096775       0.16475533        6 
C       2.40459965      -2.58522549      -0.66525520        6 
C      -1.70193033      -1.54086016       0.06391499        6 
C      -3.01592381      -1.08677829       0.02077321        6 
C      -3.27539457       0.28231899       0.01910846        6 
C      -2.21649916       1.18145472       0.03298355        6 
H       2.59187767       2.52573791      -0.89841624        1 
H       3.20177648      -1.88790192      -0.40411499        1 
H      -4.29550923       0.64673239      -0.01481596        1 
H       2.25966874       3.25686650       0.68952807        1 
H       3.33111179       1.82552880       0.57898552        1 
H       2.57951759      -3.01927213      -1.64703280        1 
H       2.34574335      -3.36510810       0.09580444        1 
H      -3.83169050      -1.80007986      -0.01294877        1 
H      -2.39630641       2.24722490      -0.02954755        1 
H      -1.49925035      -2.60550482       0.06430328        1 
