24
Lattice="0.0 0.0 0.0 0.0 0.0 0.0 0.0 0.0 0.0" Properties=species:S:1:pos:R:3:Z:I:1 pbc="F F F"
C       0.79128947       0.74148192      -0.11759770        6 
C      -0.60049812       0.65967130       0.06204079        6 
C       1.65828216      -0.47274272      -0.30703461        6 
C      -1.28804680      -0.65921324      -0.06928960        6 
O       1.82180638      -1.13375050       0.84958738        8 
O       2.19916601      -0.75918141      -1.34589106        8 
O      -2.62991711      -0.54759121       0.03348973        8 
O      -0.73094398      -1.71852767      -0.24412262        8 
C      -3.37546160      -1.77241640      -0.08745557        6 
C       2.50982051      -2.39579180       0.75823305        6 
C       1.41543115       1.98772725      -0.11870894        6 
C       0.67308187       3.14888527       0.08074534        6 
C      -0.70466150       3.07162744       0.27589599        6 
C      -1.33812020       1.83429363       0.25317287        6 
H      -3.19724959      -2.23302416      -1.06023643        1 
H       1.93402244      -3.07861521       0.13154044        1 
H      -1.28611027       3.97309730       0.43009525        1 
H      -3.08998673      -2.47224609       0.69941548        1 
H      -4.41950241      -1.48504087       0.01544226        1 
H       2.56702746      -2.76801517       1.77864659        1 
H       3.50760965      -2.26312600       0.33831716        1 
H       1.17084615       4.11174776       0.08169721        1 
H      -2.41051981       1.76489018       0.37401927        1 
H       2.48612148       2.04257037      -0.27531949        1 
