24
Lattice="0.0 0.0 0.0 0.0 0.0 0.0 0.0 0.0 0.0" Properties=species:S:1:pos:R:3:Z:I:1 pbc="F F F"
C       0.50223373      -0.78519376       0.18719741        6 
C      -0.86925116      -0.53382637       0.03982118        6 
C       1.46413569       0.35132280       0.32244840        6 
C      -1.46509529       0.82950428       0.26318393        6 
O       2.52569196       0.18646159      -0.49605843        8 
O       1.35136315       1.27524001       1.09060671        8 
O      -1.58415864       1.50506310      -0.89666753        8 
O      -1.80089614       1.25567400       1.33616310        8 
C      -2.13827573       2.83331846      -0.79338751        6 
C       3.54931546       1.19563243      -0.40377748        6 
C       0.97701037      -2.09637858       0.07619072        6 
C       0.09567052      -3.15332616      -0.12658384        6 
C      -1.26723993      -2.90130092      -0.27406238        6 
C      -1.74472312      -1.59655020      -0.19321926        6 
H      -3.15288145       2.79023200      -0.39461194        1 
H       3.13946180       2.17546315      -0.65243808        1 
H      -1.95803229      -3.71807620      -0.44960432        1 
H      -1.51871148       3.44902906      -0.14021797        1 
H      -2.14033541       3.22411184      -1.80831288        1 
H       4.30864540       0.90231303      -1.12497963        1 
H       3.96413374       1.22575012       0.60500526        1 
H       0.47255931      -4.16776314      -0.18605224        1 
H      -2.80488862      -1.39908326      -0.30296577        1 
H       2.04136984      -2.27945784       0.15010249        1 
