24
Lattice="0.0 0.0 0.0 0.0 0.0 0.0 0.0 0.0 0.0" Properties=species:S:1:pos:R:3:Z:I:1 pbc="F F F"
C      -0.05786290      -0.81320261       0.06506320        6 
C      -1.08476879       0.13831671      -0.15209990        6 
C       1.38452728      -0.55129508      -0.26145966        6 
C      -0.93424873       1.63313731      -0.04732283        6 
O       2.20019468      -1.41394023       0.39165366        8 
O       1.79258427       0.29035564      -1.02039873        8 
O       0.28078618       2.01686589       0.35912051        8 
O      -1.86479029       2.40094064      -0.16041028        8 
C       0.47384157       3.42815418       0.54829287        6 
C       3.60061568      -1.29939232       0.08650277        6 
C      -0.41481068      -2.15031530       0.28214984        6 
C      -1.74531216      -2.56171861       0.26497430        6 
C      -2.74793239      -1.63548639       0.00245382        6 
C      -2.41354569      -0.29646057      -0.17753950        6 
H       0.28551381       3.96470902      -0.38261259        1 
H       3.77804032      -1.49347061      -0.97277139        1 
H      -3.78652829      -1.94367884      -0.03490609        1 
H      -0.19489178       3.80538311       1.32384779        1 
H       1.51380884       3.53611274       0.84750567        1 
H       4.09287253      -2.04956588       0.70153232        1 
H       3.96405535      -0.30062705       0.33258769        1 
H      -1.98919014      -3.60421129       0.43530710        1 
H      -3.18537804       0.45164534      -0.30518364        1 
H       0.37115171      -2.87804033       0.43048416        1 
