24
Lattice="0.0 0.0 0.0 0.0 0.0 0.0 0.0 0.0 0.0" Properties=species:S:1:pos:R:3:Z:I:1 pbc="F F F"
C      -0.70255839      -0.67382117      -0.15376821        6 
C      -0.84036065       0.69703676       0.13038983        6 
C       0.60854730      -1.39692486      -0.27581312        6 
C       0.27550810       1.69015205       0.05056850        6 
O       1.24738770      -1.43899748       0.90652285        8 
O       0.98048302      -1.97274144      -1.26860422        8 
O       1.46734990       1.11992392      -0.20361117        8 
O       0.11909773       2.88770514       0.12186706        8 
C       2.57594228       2.01651222      -0.39263293        6 
C       2.51085787      -2.12685606       0.91089557        6 
C      -1.84305788      -1.47320370      -0.26206971        6 
C      -3.11104387      -0.93719429      -0.05673575        6 
C      -3.25026821       0.41437376       0.25226484        6 
C      -2.12341810       1.22469190       0.32340480        6 
H       2.37149551       2.70422729      -1.21406414        1 
H       2.38095993      -3.16891428       0.61497471        1 
H      -4.23356858       0.83979046       0.41567272        1 
H       2.76223954       2.58719936       0.51829413        1 
H       3.42473249       1.37859474      -0.62805421        1 
H       2.87317834      -2.06006291       1.93417425        1 
H       3.20693391      -1.64343185       0.22313043        1 
H      -3.98468077      -1.57398360      -0.13759072        1 
H      -2.21558909       2.28731899       0.50914368        1 
H      -1.72697577      -2.52416760      -0.49903960        1 
