24
Lattice="0.0 0.0 0.0 0.0 0.0 0.0 0.0 0.0 0.0" Properties=species:S:1:pos:R:3:Z:I:1 pbc="F F F"
C       0.68809885       0.62880837      -0.14758127        6 
C      -0.66964496       0.73643658       0.18115861        6 
C       1.30617664      -0.72796614      -0.24039404        6 
C      -1.50224146      -0.49086857       0.42964966        6 
O       2.52356924      -0.76749376       0.33254967        8 
O       0.79872317      -1.67027835      -0.80292974        8 
O      -2.29391493      -0.76019252      -0.61880182        8 
O      -1.50252163      -1.11090844       1.46472213        8 
C      -3.10707713      -1.94597748      -0.50577306        6 
C       3.20560912      -2.03564698       0.26467793        6 
C       1.44915115       1.78465029      -0.33609058        6 
C       0.85057985       3.03795422      -0.24690428        6 
C      -0.50393742       3.14208932       0.06584479        6 
C      -1.26238017       1.99376561       0.27914355        6 
H      -2.47007510      -2.82238607      -0.38105085        1 
H       2.61383991      -2.80864610       0.75639550        1 
H      -0.97173950       4.11673588       0.14413239        1 
H      -3.78702129      -1.86417113       0.34342085        1 
H      -3.66126643      -2.00387272      -1.43968031        1 
H       4.14810390      -1.88352149       0.78544515        1 
H       3.37866581      -2.32000986      -0.77432884        1 
H       1.44108780       3.93122183      -0.41327184        1 
H      -2.31486648       2.07164101       0.52559269        1 
H       2.50420144       1.69261787      -0.56064417        1 
