24
Lattice="0.0 0.0 0.0 0.0 0.0 0.0 0.0 0.0 0.0" Properties=species:S:1:pos:R:3:Z:I:1 pbc="F F F"
C       0.72149250       0.50643933      -0.11141911        6 
C      -0.69125835       0.51841409      -0.05775218        6 
C       1.56124237      -0.74244648      -0.15608726        6 
C      -1.57643058      -0.69440418      -0.17142019        6 
O       2.71871637      -0.54559951       0.53203201        8 
O       1.30406706      -1.78092534      -0.70289423        8 
O      -2.67722256      -0.53923574       0.61359034        8 
O      -1.39491291      -1.66847411      -0.85001561        8 
C      -3.64204844      -1.60388497       0.54615285        6 
C       3.63126993      -1.65723498       0.53504331        6 
C       1.40747335       1.72830283      -0.07102234        6 
C       0.73263450       2.94187795      -0.01405247        6 
C      -0.65670223       2.95309761       0.04996431        6 
C      -1.35270454       1.75066888       0.04178918        6 
H      -4.03329371      -1.70218184      -0.46809861        1 
H       3.16594202      -2.53223529       0.99176048        1 
H      -1.19919207       3.88956884       0.10877010        1 
H      -3.18925006      -2.55005582       0.84614678        1 
H      -4.43327653      -1.32054804       1.23700440        1 
H       4.48586893      -1.32737409       1.12185133        1 
H       3.93520102      -1.90687740      -0.48297567        1 
H       1.29215348       3.86994994      -0.00725215        1 
H      -2.43215556       1.75277901       0.10419397        1 
H       2.48823798       1.71359775      -0.08412499        1 
