24
Lattice="0.0 0.0 0.0 0.0 0.0 0.0 0.0 0.0 0.0" Properties=species:S:1:pos:R:3:Z:I:1 pbc="F F F"
C       0.88720776      -0.66604548      -0.02875023        6 
C       0.65376164       0.69607198       0.19548905        6 
C      -0.21023786      -1.67087078       0.17966188        6 
C      -0.74842737       1.18197774       0.40589911        6 
O      -1.09102177      -1.65509869      -0.84075384        8 
O      -0.32295098      -2.35795707       1.16135413        8 
O      -1.11260966       2.04218844      -0.56491005        8 
O      -1.45346234       0.88420126       1.33920750        8 
C      -2.44318886       2.58570597      -0.45613622        6 
C      -2.25447810      -2.49349114      -0.68100504        6 
C       2.18290296      -1.11487214      -0.28415610        6 
C       3.23776268      -0.20930883      -0.34707572        6 
C       3.00372358       1.14869142      -0.13610861        6 
C       1.71237455       1.60197398       0.11752752        6 
H      -3.18260330       1.78438413      -0.49551866        1 
H      -1.96061666      -3.53913132      -0.58081378        1 
H       3.82409787       1.85555990      -0.17709955        1 
H      -2.55681066       3.13412357       0.48002951        1 
H      -2.55291619       3.25074745      -1.30957035        1 
H      -2.84232661      -2.34491286      -1.58395293        1 
H      -2.81643465      -2.18884739       0.20303256        1 
H       4.24073669      -0.56418956      -0.55353689        1 
H       1.52043456       2.65865046       0.25929342        1 
H       2.35994688      -2.17434500      -0.42850048        1 
