24
Lattice="0.0 0.0 0.0 0.0 0.0 0.0 0.0 0.0 0.0" Properties=species:S:1:pos:R:3:Z:I:1 pbc="F F F"
C       0.67284148       0.64821488      -0.10527559        6 
C      -0.72793601       0.73308291      -0.04444999        6 
C       1.31952571      -0.69606034      -0.13297812        6 
C      -1.62103119      -0.45508113      -0.29000109        6 
O       2.62136797      -0.64478832       0.22090181        8 
O       0.76341909      -1.72248955      -0.44852672        8 
O      -1.99637161      -1.03648961       0.86215145        8 
O      -1.97800518      -0.80727020      -1.38399555        8 
C      -2.79379712      -2.23070560       0.72674715        6 
C       3.32237289      -1.90207582       0.20431398        6 
C       1.43634997       1.81781709      -0.01590887        6 
C       0.81859862       3.05738923       0.10778244        6 
C      -0.57116337       3.13646847       0.17861185        6 
C      -1.33912199       1.97812206       0.09904853        6 
H      -3.72964538      -2.01003102       0.21100114        1 
H       2.86105492      -2.60311658       0.90143867        1 
H      -1.05859568       4.09838731       0.28895528        1 
H      -2.23861202      -2.98451530       0.16710646        1 
H      -2.98532375      -2.56650850       1.74331649        1 
H       4.33935844      -1.66906587       0.51154390        1 
H       3.31057452      -2.33283512      -0.79796612        1 
H       1.41971326       3.95739190       0.16034464        1 
H      -2.42070773       2.03813483       0.13673729        1 
H       2.51490671       1.74180238      -0.04168091        1 
