24
Lattice="0.0 0.0 0.0 0.0 0.0 0.0 0.0 0.0 0.0" Properties=species:S:1:pos:R:3:Z:I:1 pbc="F F F"
C       0.79568614      -0.68446705      -0.13562766        6 
C       0.78324893       0.69546919       0.14517313        6 
C      -0.41515905      -1.56454610      -0.09824008        6 
C      -0.45299350       1.54023880       0.13546671        6 
O      -1.36242943      -1.09187967       0.73532980        8 
O      -0.49413122      -2.63498502      -0.65464700        8 
O      -1.30816962       1.15589239      -0.83249638        8 
O      -0.61900688       2.51633225       0.82753770        8 
C      -2.54570824       1.88335429      -0.90983029        6 
C      -2.56598947      -1.87243583       0.83534446        6 
C       2.01817804      -1.33968470      -0.29900995        6 
C       3.21863646      -0.64811799      -0.16845909        6 
C       3.20580868       0.70820775       0.14820125        6 
C       1.99256970       1.37513595       0.29795312        6 
H      -3.12091750       1.74629485       0.00804116        1 
H      -3.06489522      -1.92409504      -0.13407364        1 
H       4.13667574       1.25039014       0.26711909        1 
H      -2.35856033       2.94717545      -1.06113375        1 
H      -3.07635030       1.46129979      -1.76038394        1 
H      -3.18805396      -1.35131759       1.55968789        1 
H      -2.34080800      -2.88330311       1.17763293        1 
H       4.15878903      -1.17157149      -0.29808769        1 
H       1.96579897       2.43598740       0.51395046        1 
H       2.00792446      -2.40254859      -0.50641403        1 
