24
Lattice="0.0 0.0 0.0 0.0 0.0 0.0 0.0 0.0 0.0" Properties=species:S:1:pos:R:3:Z:I:1 pbc="F F F"
C       0.53849212      -0.67684861      -0.09017816        6 
C      -0.84707676      -0.62862083       0.16126424        6 
C       1.38377773       0.53525169       0.13971623        6 
C      -1.65079831       0.63671168       0.26131702        6 
O       2.69690153       0.27854349      -0.05091394        8 
O       0.97039863       1.62575103       0.45577475        8 
O      -1.47080569       1.41042245      -0.82013303        8 
O      -2.47161280       0.84877070       1.12141018        8 
C      -2.16959191       2.66763026      -0.81812407        6 
C       3.58854357       1.38674771       0.16263423        6 
C       1.13942523      -1.91808332      -0.33486725        6 
C       0.38531935      -3.08789118      -0.34983711        6 
C      -0.97790322      -3.03784089      -0.07055658        6 
C      -1.58692902      -1.81180405       0.18440279        6 
H      -3.24444396       2.51097049      -0.71543127        1 
H       3.34883471       2.20514769      -0.51774131        1 
H      -1.56823711      -3.94696461      -0.05554835        1 
H      -1.81087146       3.28979571       0.00332254        1 
H      -1.93677377       3.12835320      -1.77536030        1 
H       4.58437935       0.99829464      -0.03855369        1 
H       3.51407664       1.74211994       1.19155838        1 
H       0.86691496      -4.03705812      -0.55468232        1 
H      -2.64951312      -1.75748885       0.38804542        1 
H       2.20792059      -1.96003809      -0.49466382        1 
