24
Lattice="0.0 0.0 0.0 0.0 0.0 0.0 0.0 0.0 0.0" Properties=species:S:1:pos:R:3:Z:I:1 pbc="F F F"
C       0.78678876       0.72374917      -0.16523548        6 
C      -0.58358762       0.61204578       0.14268063        6 
C       1.71580815      -0.44928149      -0.30534063        6 
C      -1.29949539      -0.69150474      -0.04408129        6 
O       1.73075739      -1.19045571       0.81121011        8 
O       2.45517472      -0.61623165      -1.24604345        8 
O      -2.64007452      -0.51591822      -0.09899497        8 
O      -0.78522512      -1.78171819      -0.12278747        8 
C      -3.42420177      -1.71215061      -0.25578833        6 
C       2.50093092      -2.40426256       0.75501916        6 
C       1.37830153       1.98505415      -0.23419045        6 
C       0.63717731       3.13257146       0.03516806        6 
C      -0.70992404       3.02596362       0.37189004        6 
C      -1.31954668       1.77615619       0.39611749        6 
H      -3.15253085      -2.22880551      -1.17733031        1 
H       2.06919368      -3.07718282       0.01235725        1 
H      -1.29229840       3.91429031       0.58706358        1 
H      -3.26946377      -2.38291199       0.59077936        1 
H      -4.45776628      -1.37517532      -0.29509664        1 
H       2.42712696      -2.83873758       1.74928977        1 
H       3.54002556      -2.19228218       0.50016349        1 
H       1.11346149       4.10492251      -0.01529861        1 
H      -2.37905260       1.69144051       0.59400227        1 
H       2.42917209       2.05572741      -0.48728316        1 
