24
Lattice="0.0 0.0 0.0 0.0 0.0 0.0 0.0 0.0 0.0" Properties=species:S:1:pos:R:3:Z:I:1 pbc="F F F"
C       0.86870377      -0.67081619      -0.15073394        6 
C       0.69262122       0.69226108       0.14229679        6 
C      -0.21591113      -1.69722300      -0.04740622        6 
C      -0.64833345       1.34416011       0.33648567        6 
O      -1.45306932      -1.17019691      -0.10370691        8 
O      -0.00807933      -2.87520251       0.13164568        8 
O      -1.26462786       1.53813556      -0.84159179        8 
O      -1.06601331       1.74435200       1.39527586        8 
C      -2.57013811       2.14002937      -0.77741203        6 
C      -2.54536332      -2.08328228       0.10894147        6 
C       2.16181475      -1.16116321      -0.36841645        6 
C       3.26155181      -0.31421085      -0.32915960        6 
C       3.08434650       1.03390428      -0.02207456        6 
C       1.80643491       1.53031185       0.21735561        6 
H      -3.23877464       1.52646316      -0.17117690        1 
H      -2.54218405      -2.86499113      -0.65171098        1 
H       3.93843231       1.69885383       0.03324538        1 
H      -2.51159903       3.14065377      -0.34663554        1 
H      -2.91839029       2.18462605      -1.80687894        1 
H      -3.44544069      -1.47740500       0.03261899        1 
H      -2.47169032      -2.53908184       1.09720344        1 
H       4.25388643      -0.70749289      -0.51567735        1 
H       1.66353710       2.57653854       0.46053974        1 
H       2.28296932      -2.22170358      -0.55003280        1 
