24
Lattice="0.0 0.0 0.0 0.0 0.0 0.0 0.0 0.0 0.0" Properties=species:S:1:pos:R:3:Z:I:1 pbc="F F F"
C       0.70193100       0.65012220      -0.19352574        6 
C      -0.69461840       0.70658360      -0.08829310        6 
C       1.40835040      -0.66298616      -0.34975584        6 
C      -1.56632665      -0.49986466      -0.30573383        6 
O       2.29806270      -0.84624737       0.65126428        8 
O       1.24940606      -1.44478520      -1.25278203        8 
O      -2.04638781      -0.96552583       0.86735538        8 
O      -1.82256392      -0.98117971      -1.37737955        8 
C      -2.91854680      -2.11140808       0.77717995        6 
C       3.06750849      -2.06338637       0.58807154        6 
C       1.45080041       1.82095497      -0.05060103        6 
C       0.81778603       3.04434112       0.14417720        6 
C      -0.57060145       3.09862875       0.25227641        6 
C      -1.32096918       1.93164730       0.14725877        6 
H      -3.81317309      -1.86436329       0.20329566        1 
H       2.40795184      -2.93172455       0.62275720        1 
H      -1.06926554       4.04604633       0.42098037        1 
H      -2.40258746      -2.94388700       0.29704353        1 
H      -3.17758655      -2.35753286       1.80440597        1 
H       3.71613082      -2.03948355       1.46073361        1 
H       3.65542849      -2.09655179      -0.33045070        1 
H       1.40750922       3.94964046       0.22746133        1 
H      -2.40030392       1.96777747       0.23970340        1 
H       2.53148314       1.76497237      -0.09323935        1 
