24
Lattice="0.0 0.0 0.0 0.0 0.0 0.0 0.0 0.0 0.0" Properties=species:S:1:pos:R:3:Z:I:1 pbc="F F F"
C       0.50539958      -0.93038595       0.13075764        6 
C      -0.75464004      -0.42350113      -0.22260186        6 
C       1.69861106      -0.05934036       0.40162233        6 
C      -1.03748365       1.04951348      -0.27572794        6 
O       2.12025116       0.55486219      -0.70910607        8 
O       2.23790086       0.02769259       1.47973915        8 
O      -2.07130266       1.35036419       0.54112284        8 
O      -0.48124997       1.86135091      -0.97190556        8 
C      -2.49756246       2.72637605       0.53967855        6 
C       3.23031680       1.45971328      -0.55759486        6 
C       0.67617258      -2.30945704       0.27626560        6 
C      -0.37676149      -3.18516378       0.03019116        6 
C      -1.62588188      -2.68438873      -0.33158314        6 
C      -1.81773887      -1.31028605      -0.42684700        6 
H      -1.68159738       3.37770153       0.85557578        1 
H       2.98726025       2.23381723       0.17110154        1 
H      -2.45344642      -3.35926487      -0.51727443        1 
H      -2.82838708       3.02217067      -0.45733543        1 
H      -3.32138297       2.77260765       1.24816843        1 
H       3.38079432       1.89419274      -1.54265405        1 
H       4.12025950       0.91955724      -0.23047513        1 
H      -0.22437177      -4.25368717       0.13017763        1 
H      -2.79893990      -0.91378930      -0.65705042        1 
H       1.64289487      -2.69074524       0.58301878        1 
