24
Lattice="0.0 0.0 0.0 0.0 0.0 0.0 0.0 0.0 0.0" Properties=species:S:1:pos:R:3:Z:I:1 pbc="F F F"
C       0.89219663      -0.71198557       0.04860034        6 
C       0.71455137       0.67982487       0.11824260        6 
C      -0.22985245      -1.69681317      -0.03578417        6 
C      -0.62422891       1.33523740       0.32493936        6 
O      -1.40699075      -1.17811386       0.35799523        8 
O      -0.10538057      -2.83116044      -0.43680127        8 
O      -1.20997805       1.62648597      -0.85159682        8 
O      -1.09425295       1.59658370       1.40210691        8 
C      -2.51694213       2.22776159      -0.77106260        6 
C      -2.55497779      -2.03948723       0.26074133        6 
C       2.18645690      -1.23445523      -0.05730530        6 
C       3.29357718      -0.39658376      -0.07004660        6 
C       3.11442602       0.98413051      -0.00046778        6 
C       1.83188863       1.51620641       0.09403027        6 
H      -3.20943202       1.55403880      -0.26375168        1 
H      -2.71458879      -2.34522090      -0.77436782        1 
H       3.97128869       1.64768751      -0.01751364        1 
H      -2.47124745       3.17249696      -0.22783756        1 
H      -2.82445095       2.39044175      -1.80150108        1 
H      -3.39101502      -1.44469439       0.62173479        1 
H      -2.41951936      -2.92552814       0.88228200        1 
H       4.28991373      -0.81663082      -0.14104511        1 
H       1.69239230       2.58918188       0.15554120        1 
H       2.29795679      -2.30852316      -0.13715689        1 
