24
Lattice="0.0 0.0 0.0 0.0 0.0 0.0 0.0 0.0 0.0" Properties=species:S:1:pos:R:3:Z:I:1 pbc="F F F"
C       0.86611551      -0.71560891      -0.00008248        6 
C       0.81663718       0.68139498       0.09941661        6 
C      -0.37424424      -1.52930827      -0.20748092        6 
C      -0.48728360       1.39873211       0.30648189        6 
O      -1.28607987      -1.30626044       0.75775757        8 
O      -0.56076249      -2.25032161      -1.15706421        8 
O      -1.18749096       1.47660677      -0.84250051        8 
O      -0.88104699       1.80833912       1.36811830        8 
C      -2.49745848       2.07045972      -0.74616724        6 
C      -2.56310229      -1.95078498       0.58649712        6 
C       2.10196331      -1.35849509      -0.10114439        6 
C       3.28258913      -0.62627065      -0.04999949        6 
C       3.23306540       0.76217771       0.06682125        6 
C       2.00457810       1.41180235       0.14577710        6 
H      -3.12072769       1.50030949      -0.05523417        1 
H      -3.02508081      -1.63006813      -0.34869381        1 
H       4.14969624       1.33938649       0.09843876        1 
H      -2.42424864       3.10101636      -0.39648677        1 
H      -2.90523592       2.03401718      -1.75369121        1 
H      -3.15927890      -1.63843736       1.44067692        1 
H      -2.44432389      -3.03502630       0.57486069        1 
H       4.23696837      -1.13586107      -0.11154050        1 
H       1.96171997       2.48992150       0.24667517        1 
H       2.12548526      -2.43467852      -0.22485557        1 
