24
Lattice="0.0 0.0 0.0 0.0 0.0 0.0 0.0 0.0 0.0" Properties=species:S:1:pos:R:3:Z:I:1 pbc="F F F"
C       1.01210381      -0.51209625       0.09978408        6 
C       0.42031499       0.76532611       0.03009553        6 
C       0.26245435      -1.80870138       0.00588910        6 
C      -1.02417101       1.01629071       0.35107149        6 
O      -1.03713280      -1.64289553      -0.28553383        8 
O       0.79269960      -2.89511169       0.06836435        8 
O      -1.58084588       1.87154646      -0.53294712        8 
O      -1.60680565       0.56377728       1.30371591        8 
C      -2.95302499       2.22763305      -0.27863536        6 
C      -1.82351206      -2.84001273      -0.41267704        6 
C       2.40436288      -0.62159794       0.04283631        6 
C       3.20977958       0.50610270      -0.07419686        6 
C       2.62239023       1.76389975      -0.17731690        6 
C       1.23628070       1.88870394      -0.12423334        6 
H      -3.58413327       1.33784557      -0.29589368        1 
H      -1.44880827      -3.45845347      -1.22974771        1 
H       3.23798230       2.64885368      -0.29035833        1 
H      -3.04879707       2.71561433       0.69262418        1 
H      -3.22849229       2.90880412      -1.08061694        1 
H      -2.83495391      -2.49789413      -0.61986666        1 
H      -1.79518250      -3.41152358       0.51584021        1 
H       4.28765457       0.39921363      -0.10648675        1 
H       0.77604581       2.86712719      -0.17920121        1 
H       2.83447199      -1.61483350       0.06708640        1 
