24
Lattice="0.0 0.0 0.0 0.0 0.0 0.0 0.0 0.0 0.0" Properties=species:S:1:pos:R:3:Z:I:1 pbc="F F F"
C       0.77837401      -0.67029079       0.20076493        6 
C       0.72315523       0.68565890      -0.19170469        6 
C      -0.34720185      -1.65837914       0.05182935        6 
C      -0.51027669       1.54221350      -0.20600113        6 
O      -1.53112282      -1.10177159      -0.25326805        8 
O      -0.17601096      -2.85720029       0.06121866        8 
O      -1.29551799       1.29901478       0.85669167        8 
O      -0.68912417       2.46030555      -0.97259702        8 
C      -2.50074652       2.07685721       0.94290843        6 
C      -2.60673253      -2.01483921      -0.53535191        6 
C       2.02932150      -1.25240021       0.43418430        6 
C       3.20446408      -0.52247670       0.29739396        6 
C       3.14824954       0.79709856      -0.14257537        6 
C       1.91323910       1.39301399      -0.38046721        6 
H      -2.27111645       3.14229768       0.99181881        1 
H      -2.34903807      -2.66287173      -1.37421853        1 
H       4.05894703       1.36625551      -0.28907167        1 
H      -3.13547338       1.88602839       0.07541364        1 
H      -2.99214997       1.74720299       1.85552138        1 
H      -3.45877201      -1.38550385      -0.78312350        1 
H      -2.82426102      -2.62909030       0.33962041        1 
H       4.15903438      -0.99436084       0.49907615        1 
H       1.84964970       2.42849202      -0.69060083        1 
H       2.06008069      -2.30557333       0.68274095        1 
