24
Lattice="0.0 0.0 0.0 0.0 0.0 0.0 0.0 0.0 0.0" Properties=species:S:1:pos:R:3:Z:I:1 pbc="F F F"
C       0.84270777       0.65341276       0.18932455        6 
C      -0.53224142       0.62508690      -0.13741713        6 
C       1.74289141      -0.54968511       0.24095438        6 
C      -1.36134144      -0.60407006       0.10937097        6 
O       1.47843741      -1.40279747      -0.75744114        8 
O       2.70059475      -0.64315929       0.97378698        8 
O      -2.68555962      -0.32790198       0.02463127        8 
O      -0.95003794      -1.71488855       0.33955012        8 
C      -3.57255996      -1.44158084       0.22597948        6 
C       2.24792662      -2.61655284      -0.78188552        6 
C       1.50618152       1.87900492       0.26410151        6 
C       0.84267350       3.07128617      -0.01318487        6 
C      -0.49927442       3.04521247      -0.38005781        6 
C      -1.18398310       1.83413108      -0.40996235        6 
H      -3.37796235      -2.22322482      -0.50989522        1 
H       3.31424211      -2.39812276      -0.85660871        1 
H      -1.02284190       3.96551250      -0.61154316        1 
H      -3.44713214      -1.85399702       1.22830794        1 
H      -4.57479452      -1.03719979       0.10129725        1 
H       1.90198340      -3.15809457      -1.65928597        1 
H       2.05598762      -3.19678164       0.12224376        1 
H       1.37758238       4.01210605       0.04582206        1 
H      -2.24388482       1.81815414      -0.62083293        1 
H       2.55879155       1.87801419       0.51830517        1 
