24
Lattice="0.0 0.0 0.0 0.0 0.0 0.0 0.0 0.0 0.0" Properties=species:S:1:pos:R:3:Z:I:1 pbc="F F F"
C      -0.78570875      -0.72690375       0.09529460        6 
C      -0.74799442       0.64366784      -0.18819334        6 
C       0.45880476      -1.51980398       0.36765053        6 
C       0.55267625       1.37159635      -0.37965212        6 
O       1.20666881      -1.66071480      -0.73794860        8 
O       0.75304042      -1.96754084       1.44953117        8 
O       0.94631338       1.95420609       0.76910326        8 
O       1.16632278       1.43356537      -1.41428457        8 
C       2.19087419       2.68093168       0.71713392        6 
C       2.44826906      -2.37560450      -0.58320462        6 
C      -2.01839601      -1.36716856       0.24511229        6 
C      -3.20562251      -0.66258449       0.07543806        6 
C      -3.16789825       0.70042318      -0.21266763        6 
C      -1.94325498       1.35096825      -0.33419684        6 
H       3.00681051       2.01458278       0.43389611        1 
H       3.08152754      -1.88075902       0.15438769        1 
H      -4.08907652       1.25802673      -0.33644047        1 
H       2.12539964       3.49714324      -0.00385015        1 
H       2.34077959       3.06573358       1.72296405        1 
H       2.91344782      -2.35604787      -1.56564927        1 
H       2.25822953      -3.40166122      -0.26467750        1 
H      -4.15584470      -1.17394785       0.17756063        1 
H      -1.91103059       2.41321076      -0.54696250        1 
H      -2.04036731      -2.42103472       0.49699277        1 
