24
Lattice="0.0 0.0 0.0 0.0 0.0 0.0 0.0 0.0 0.0" Properties=species:S:1:pos:R:3:Z:I:1 pbc="F F F"
C       0.26595647      -0.83582710       0.02721420        6 
C      -1.04572224      -0.34076570      -0.09960765        6 
C       1.43732329       0.05794863      -0.21999413        6 
C      -1.38454592       1.11847707      -0.18005151        6 
O       2.59021940      -0.48356532       0.22826468        8 
O       1.38283172       1.12997364      -0.77490816        8 
O      -0.81212666       1.80811325       0.82065273        8 
O      -2.16254400       1.58883040      -0.97402341        8 
C      -0.99658251       3.23429548       0.78584331        6 
C       3.78075559       0.28739345      -0.01381615        6 
C       0.46083983      -2.20925165       0.21319239        6 
C      -0.62265496      -3.08187444       0.26846447        6 
C      -1.91690099      -2.59163404       0.11401333        6 
C      -2.12334237      -1.22667201      -0.07082079        6 
H      -0.53405157       3.64340110      -0.11377198        1 
H       3.91884432       0.45031897      -1.08377090        1 
H      -2.76449907      -3.26701726       0.13973769        1 
H      -2.05784697       3.48656360       0.79897577        1 
H      -0.49987503       3.61168404       1.67677969        1 
H       4.59631502      -0.30566330       0.39381483        1 
H       3.71744841       1.25243364       0.49096737        1 
H      -0.45411056      -4.14253537       0.41516045        1 
H      -3.12592139      -0.83183080      -0.18198871        1 
H       1.47056328      -2.58881358       0.29136908        1 
