24
Lattice="0.0 0.0 0.0 0.0 0.0 0.0 0.0 0.0 0.0" Properties=species:S:1:pos:R:3:Z:I:1 pbc="F F F"
C       0.83841808      -0.68473339      -0.06014519        6 
C       0.85653437       0.71344225       0.03876262        6 
C      -0.44490645      -1.44230261      -0.22643712        6 
C      -0.41069771       1.49614369       0.19660625        6 
O      -1.25117477      -1.28109339       0.84186406        8 
O      -0.73691290      -2.08625261      -1.20258801        8 
O      -1.26233880       1.25481388      -0.82005294        8 
O      -0.66199237       2.21188776       1.13388195        8 
C      -2.56835286       1.85209849      -0.71037701        6 
C      -2.55523577      -1.88658043       0.74734957        6 
C       2.04076819      -1.38982843      -0.12991904        6 
C       3.25525671      -0.71497481      -0.05926597        6 
C       3.27369057       0.67369978       0.06484465        6 
C       2.07811525       1.38307272       0.12424448        6 
H      -3.07405482       1.48803272       0.18573278        1 
H      -3.10497453      -1.46824549      -0.09760494        1 
H       4.21763502       1.20308967       0.11946696        1 
H      -2.48972690       2.93891532      -0.66212386        1 
H      -3.10154090       1.54462227      -1.60697666        1 
H      -3.05139023      -1.65021271       1.68581075        1 
H      -2.46740230      -2.96619445       0.61902599        1 
H       4.18403213      -1.27162626      -0.10417319        1 
H       2.08202471       2.46058153       0.23670793        1 
H       2.01574552      -2.46767094      -0.23911730        1 
