24
Lattice="0.0 0.0 0.0 0.0 0.0 0.0 0.0 0.0 0.0" Properties=species:S:1:pos:R:3:Z:I:1 pbc="F F F"
C       0.85943456      -0.70376040      -0.02088335        6 
C       0.79753436       0.69265076       0.10876579        6 
C      -0.35421801      -1.57292049      -0.09047882        6 
C      -0.50311610       1.43057512       0.23584020        6 
O      -1.35041398      -1.11032913       0.69039364        8 
O      -0.43649187      -2.57702467      -0.75707813        8 
O      -1.23048685       1.32334313      -0.89378066        8 
O      -0.85039450       2.04676749       1.21117194        8 
C      -2.54130300       1.91785432      -0.85823633        6 
C      -2.59385548      -1.83201093       0.63354858        6 
C       2.10218236      -1.33143280      -0.14129391        6 
C       3.27569613      -0.58788424      -0.09688423        6 
C       3.21372416       0.79616144       0.05862033        6 
C       1.97947817       1.43174596       0.16394943        6 
H      -3.14541360       1.44987615      -0.07880097        1 
H      -2.99187122      -1.82006553      -0.38264808        1 
H       4.12490047       1.38168725       0.09656889        1 
H      -2.47229811       2.98908765      -0.66434153        1 
H      -2.96980245       1.73237110      -1.84050955        1 
H      -3.26034821      -1.31018336       1.31657047        1 
H      -2.45040642      -2.86537470       0.95166265        1 
H       4.23422185      -1.08628381      -0.18162318        1 
H       1.92497778       2.50710724       0.28466510        1 
H       2.12935289      -2.40699242      -0.26649033        1 
