24
Lattice="0.0 0.0 0.0 0.0 0.0 0.0 0.0 0.0 0.0" Properties=species:S:1:pos:R:3:Z:I:1 pbc="F F F"
C      -0.56107760      -0.72887766       0.18940575        6 
C      -0.87520975       0.62562362       0.01507734        6 
C       0.86316327      -1.16031828       0.34516260        6 
C       0.15788898       1.69521512       0.23537173        6 
O       1.16162737      -2.14952398      -0.52354551        8 
O       1.63680175      -0.73718731       1.16907321        8 
O       0.86090998       1.93301953      -0.88875964        8 
O       0.35401551       2.24033667       1.28935413        8 
C       1.94206747       2.88024033      -0.76242979        6 
C       2.48809362      -2.70135632      -0.41875041        6 
C      -1.57178882      -1.68998559       0.09024382        6 
C      -2.89086007      -1.30713995      -0.12957111        6 
C      -3.20251181       0.04076905      -0.29901146        6 
C      -2.19795582       1.00201943      -0.22423224        6 
H       1.55898762       3.85753577      -0.46568278        1 
H       3.23646932      -1.92731705      -0.59333241        1 
H      -4.22623322       0.34431708      -0.48551358        1 
H       2.65885495       2.53051101      -0.01827478        1 
H       2.39874891       2.92931289      -1.74816422        1 
H       2.54217464      -3.46807167      -1.18826221        1 
H       2.64300195      -3.13499176       0.57046737        1 
H      -3.67003901      -2.05885020      -0.18215028        1 
H      -2.43956271       2.05152735      -0.34554915        1 
H      -1.31652104      -2.73802876       0.18584565        1 
