24
Lattice="0.0 0.0 0.0 0.0 0.0 0.0 0.0 0.0 0.0" Properties=species:S:1:pos:R:3:Z:I:1 pbc="F F F"
C      -0.63851946      -0.68592732       0.11491114        6 
C      -0.91784605       0.68464093      -0.01509849        6 
C       0.73588582      -1.24571903       0.36161236        6 
C       0.12499416       1.75361188      -0.03597594        6 
O       1.28314539      -1.69836909      -0.78017769        8 
O       1.24071190      -1.35675456       1.44992216        8 
O       1.37382973       1.25338007      -0.04212423        8 
O      -0.11603924       2.93861161      -0.06402476        8 
C       2.44809841       2.20915699      -0.01676510        6 
C       2.59252771      -2.28643066      -0.65935046        6 
C      -1.68888044      -1.60636315       0.08675295        6 
C      -3.00539698      -1.17993818      -0.06159103        6 
C      -3.28655822       0.17996776      -0.18247385        6 
C      -2.24732889       1.10142813      -0.15982594        6 
H       2.42459454       2.83045649      -0.91315553        1 
H       3.29497000      -1.55981637      -0.24833921        1 
H      -4.30956996       0.51891253      -0.29636617        1 
H       2.36842721       2.84430555       0.86626218        1 
H       3.35918967       1.61640454       0.01820163        1 
H       2.87687681      -2.56825531      -1.67043991        1 
H       2.55972096      -3.16209220      -0.00913710        1 
H      -3.80784248      -1.90888705      -0.08034921        1 
H      -2.44034576       2.16224801      -0.25805572        1 
H      -1.47218629      -2.66344679       0.18954696        1 
