24
Lattice="0.0 0.0 0.0 0.0 0.0 0.0 0.0 0.0 0.0" Properties=species:S:1:pos:R:3:Z:I:1 pbc="F F F"
C       0.87957508      -0.70521264       0.00393080        6 
C       0.73181725       0.68645172       0.12646881        6 
C      -0.26022358      -1.67145419      -0.03612323        6 
C      -0.59877142       1.36546946       0.30126107        6 
O      -1.41693167      -1.12554963       0.38313584        8 
O      -0.16221665      -2.82171330      -0.39683326        8 
O      -1.21518386       1.53279712      -0.88372532        8 
O      -1.03613921       1.74766456       1.35628416        8 
C      -2.52427002       2.13049305      -0.83246587        6 
C      -2.57661943      -1.97586536       0.35483876        6 
C       2.16209256      -1.25083122      -0.12358422        6 
C       3.28606112      -0.43535758      -0.11379458        6 
C       3.13700963       0.94424755       0.01897306        6 
C       1.86623320       1.49917936       0.14040024        6 
H      -3.19656120       1.51157237      -0.23576209        1 
H      -2.78415145      -2.30166350      -0.66558697        1 
H       4.00800751       1.58922702       0.02904745        1 
H      -2.47374228       3.12931880      -0.39700455        1 
H      -2.86134387       2.17815089      -1.86551066        1 
H      -3.39047582      -1.36458474       0.73828009        1 
H      -2.42314865      -2.85010078       0.98875839        1 
H       4.27297514      -0.87304611      -0.20668056        1 
H       1.74829984       2.57099357       0.24894577        1 
H       2.25144560      -2.32466401      -0.23041844        1 
