24
Lattice="0.0 0.0 0.0 0.0 0.0 0.0 0.0 0.0 0.0" Properties=species:S:1:pos:R:3:Z:I:1 pbc="F F F"
C       0.68662136       0.56014085       0.03578408        6 
C      -0.71900363       0.52209287      -0.12307700        6 
C       1.56572055      -0.62332073      -0.25646368        6 
C      -1.48848848      -0.75316674       0.07795489        6 
O       2.68789902      -0.60161826       0.49962758        8 
O       1.33307003      -1.47265042      -1.07583200        8 
O      -2.82530783      -0.54546795      -0.02201034        8 
O      -1.01759203      -1.84078593       0.29292948        8 
C      -3.65180451      -1.70849662       0.15599624        6 
C       3.61148572      -1.68047178       0.26388945        6 
C       1.32309217       1.79685689       0.16887829        6 
C       0.60216050       2.98851108       0.12414456        6 
C      -0.77302308       2.95462299      -0.07510630        6 
C      -1.42591215       1.72828474      -0.16872138        6 
H      -3.41828987      -2.46112230      -0.59853621        1 
H       3.13078060      -2.63915652       0.46377285        1 
H      -1.34400718       3.87424708      -0.12894919        1 
H      -3.50115190      -2.13736670       1.14798021        1 
H      -4.67461511      -1.35522638       0.04292489        1 
H       4.43563441      -1.51175256       0.95348225        1 
H       3.96282775      -1.66447475      -0.76918917        1 
H       1.11963451       3.93536414       0.22681803        1 
H      -2.50283004       1.69434806      -0.25334626        1 
H       2.39916281       1.81721982       0.28011982        1 
