24
Lattice="0.0 0.0 0.0 0.0 0.0 0.0 0.0 0.0 0.0" Properties=species:S:1:pos:R:3:Z:I:1 pbc="F F F"
C       0.73128584       0.56047713       0.17034722        6 
C      -0.66852787       0.63802150       0.04415931        6 
C       1.42457958      -0.76703333       0.13500941        6 
C      -1.59734588      -0.52065899       0.29111105        6 
O       2.68146875      -0.64914077      -0.35671716        8 
O       0.96381851      -1.81913131       0.50255397        8 
O      -2.35653401      -0.76938038      -0.79814539        8 
O      -1.69407090      -1.11367680       1.33169168        8 
C      -3.32232625      -1.83089806      -0.65608220        6 
C       3.44193905      -1.86991952      -0.41204010        6 
C       1.48409058       1.73986532       0.12575634        6 
C       0.86581256       2.97893245      -0.00379196        6 
C      -0.51656066       3.04982457      -0.15625508        6 
C      -1.27499551       1.88322872      -0.13694305        6 
H      -2.81978346      -2.76788780      -0.41287603        1 
H       3.55010118      -2.29868156       0.58534466        1 
H      -1.00590727       4.00837640      -0.28571543        1 
H      -4.03775744      -1.59165430       0.13242451        1 
H      -3.82089007      -1.89835811      -1.62034820        1 
H       4.41068062      -1.58801378      -0.81846936        1 
H       2.94895906      -2.59562711      -1.06080878        1 
H       1.46419435       3.88230724      -0.01096025        1 
H      -2.35186537       1.93320645      -0.24555408        1 
H       2.56176932       1.67195591       0.18387693        1 
