24
Lattice="0.0 0.0 0.0 0.0 0.0 0.0 0.0 0.0 0.0" Properties=species:S:1:pos:R:3:Z:I:1 pbc="F F F"
C      -0.45145424      -0.73658905       0.03546592        6 
C      -0.99302831       0.56325614       0.08293638        6 
C       0.98427823      -1.05057597       0.34156577        6 
C      -0.18912719       1.82459879      -0.00597568        6 
O       1.50848104      -1.87732236      -0.58729198        8 
O       1.57604808      -0.67947235       1.32305725        8 
O       1.11007662       1.59671197      -0.25124441        8 
O      -0.67238604       2.93369627       0.03333090        8 
C       1.95384171       2.75577572      -0.35905991        6 
C       2.85654443      -2.32095993      -0.34215379        6 
C      -1.31178446      -1.82992389      -0.10396296        6 
C      -2.69200812      -1.65357577      -0.16220591        6 
C      -3.23031628      -0.37218090      -0.08291271        6 
C      -2.38140198       0.72477014       0.01945538        6 
H       1.66695243       3.35626013      -1.22396455        1 
H       3.53137039      -1.46643856      -0.27780655        1 
H      -4.30331731      -0.22501037      -0.12285064        1 
H       1.87929381       3.36302618       0.54355775        1 
H       2.96216317       2.36600554      -0.47759282        1 
H       3.11262099      -2.95018966      -1.19152646        1 
H       2.90747401      -2.88918401       0.58818171        1 
H      -3.34109687      -2.51624350      -0.26198281        1 
H      -2.77522003       1.73312573       0.03064782        1 
H      -0.89217295      -2.82736419      -0.14616503        1 
