24
Lattice="0.0 0.0 0.0 0.0 0.0 0.0 0.0 0.0 0.0" Properties=species:S:1:pos:R:3:Z:I:1 pbc="F F F"
C       0.72277291      -0.67285087       0.20226155        6 
C       0.78158663       0.68460348      -0.18266403        6 
C      -0.51296788      -1.52636071       0.20902196        6 
C      -0.35177230       1.66272409      -0.04764282        6 
O      -1.29122771      -1.27991851      -0.85929621        8 
O      -0.69842650      -2.44617488       0.97157871        8 
O      -1.51075211       1.09764541       0.33181582        8 
O      -0.20699480       2.86188873      -0.13022191        8 
C      -2.60177957       1.99742151       0.59340192        6 
C      -2.49059359      -2.06521706      -0.96141795        6 
C       1.90950995      -1.38795032       0.38169261        6 
C       3.14617974      -0.79612301       0.14281001        6 
C       3.20568809       0.52678136      -0.28650347        6 
C       2.03316784       1.26377106      -0.41584556        6 
H      -2.34071201       2.69315286       1.39212595        1 
H      -2.25267914      -3.12829351      -1.02238825        1 
H       4.16191658       0.99450500      -0.48966528        1 
H      -2.85509937       2.56083214      -0.30580844        1 
H      -3.43160583       1.36151283       0.89411327        1 
H      -2.97919050      -1.72836135      -1.87297164        1 
H      -3.13167699      -1.89005538      -0.09541169        1 
H       4.05467755      -1.37129162       0.27971064        1 
H       2.06700900       2.31709066      -0.66315589        1 
H       1.84195245      -2.42627090       0.68194780        1 
