24
Lattice="0.0 0.0 0.0 0.0 0.0 0.0 0.0 0.0 0.0" Properties=species:S:1:pos:R:3:Z:I:1 pbc="F F F"
C       0.88788910      -0.71778380      -0.05077093        6 
C       0.72455862       0.67572543      -0.11392945        6 
C      -0.24668760      -1.68684308       0.04812163        6 
C      -0.60970902       1.34185639      -0.31546314        6 
O      -1.40080557      -1.18262349      -0.42464233        8 
O      -0.14989107      -2.79419400       0.52453471        8 
O      -1.20012674       1.61573562       0.86333290        8 
O      -1.07724676       1.61706651      -1.39000969        8 
C      -2.50479423       2.22285513       0.78538334        6 
C      -2.56374928      -2.02212153      -0.31347422        6 
C       2.17652271      -1.25477444       0.04859335        6 
C       3.29274621      -0.42884801       0.05532994        6 
C       3.12807317       0.95392939      -0.00957774        6 
C       1.85077909       1.50020420      -0.09393743        6 
H      -2.45496746       3.16990957       0.24660824        1 
H      -2.41538561      -2.95240438      -0.86337875        1 
H       3.99217559       1.60808632       0.00379195        1 
H      -3.19965627       1.55457476       0.27394212        1 
H      -2.81219737       2.38134166       1.81643108        1 
H      -3.37592056      -1.44546956      -0.75038082        1 
H      -2.76912168      -2.25100599       0.73344116        1 
H       4.28497079      -0.85971437       0.11874701        1 
H       1.72240714       2.57476578      -0.15223542        1 
H       2.27743986      -2.32998725       0.12799789        1 
