24
Lattice="0.0 0.0 0.0 0.0 0.0 0.0 0.0 0.0 0.0" Properties=species:S:1:pos:R:3:Z:I:1 pbc="F F F"
C       0.80042412      -0.65555060      -0.11628117        6 
C       0.87155371       0.73984376      -0.00687604        6 
C      -0.50850890      -1.36274333      -0.33369493        6 
C      -0.35875907       1.56396676       0.21821074        6 
O      -1.16065717      -1.55347014       0.83008687        8 
O      -0.93730667      -1.68947771      -1.41026878        8 
O      -1.28392512       1.35059390      -0.73544818        8 
O      -0.53010354       2.27644029       1.17737575        8 
C      -2.55967220       1.99134540      -0.54151400        6 
C      -2.45852397      -2.17579937       0.73277064        6 
C       1.97518615      -1.40771056      -0.15748998        6 
C       3.21478750      -0.78093579      -0.07573971        6 
C       3.28690414       0.60608169       0.04472751        6 
C       2.11896040       1.35906095       0.09947390        6 
H      -3.00841615       1.66063391       0.39665066        1 
H      -3.12459126      -1.56658812       0.11956626        1 
H       4.25012355       1.09829592       0.10874861        1 
H      -2.44236516       3.07554792      -0.52143966        1 
H      -3.16601973       1.68509449      -1.39066422        1 
H      -2.82492650      -2.23864417       1.75472670        1 
H      -2.37268321      -3.16941816       0.29119378        1 
H       4.12093497      -1.37466495      -0.10737762        1 
H       2.16249076       2.43338855       0.23198625        1 
H       1.91342302      -2.48511576      -0.25926083        1 
