24
Lattice="0.0 0.0 0.0 0.0 0.0 0.0 0.0 0.0 0.0" Properties=species:S:1:pos:R:3:Z:I:1 pbc="F F F"
C       0.69425581       0.47626883      -0.09974787        6 
C      -0.70843768       0.45975316       0.14281823        6 
C       1.59377444      -0.70776758       0.14934361        6 
C      -1.56386343      -0.76874837      -0.05901422        6 
O       2.85847821      -0.46059332      -0.28683351        8 
O       1.28099684      -1.75574308       0.64697315        8 
O      -2.88616744      -0.46009813       0.04709392        8 
O      -1.19092139      -1.89060164      -0.27516088        8 
C      -3.79378647      -1.56069693      -0.12228862        6 
C       3.79609747      -1.53192242      -0.09034807        6 
C       1.33093221       1.71555277      -0.24883152        6 
C       0.63677720       2.91805487      -0.15372798        6 
C      -0.72050083       2.90235414       0.13803312        6 
C      -1.38106234       1.68347283       0.25509340        6 
H      -3.68916916      -1.99459189      -1.11811957        1 
H       3.90431003      -1.75748078       0.97187939        1 
H      -1.27449138       3.82766386       0.24656688        1 
H      -3.60306191      -2.33278494       0.62465514        1 
H      -4.78771352      -1.13720089       0.00758612        1 
H       4.73620165      -1.17277273      -0.50375484        1 
H       3.46294518      -2.43010556      -0.61263784        1 
H       1.16461453       3.85617114      -0.28073136        1 
H      -2.45028462       1.66936849       0.40619584        1 
H       2.39926100       1.72603607      -0.40869397        1 
