24
Lattice="0.0 0.0 0.0 0.0 0.0 0.0 0.0 0.0 0.0" Properties=species:S:1:pos:R:3:Z:I:1 pbc="F F F"
C       1.06580107       0.30276203       0.01617328        6 
C      -0.20410146       0.89119446       0.11539027        6 
C       1.26075872      -1.17582556       0.21280728        6 
C      -1.41153177       0.02231823       0.24605520        6 
O       0.91792776      -1.86450669      -0.89079341        8 
O       1.66105071      -1.67224862       1.23361228        8 
O      -2.48984625       0.57071012      -0.35212410        8 
O      -1.44659372      -1.02745382       0.84437600        8 
C      -3.72016593      -0.16838603      -0.22965230        6 
C       0.91487737      -3.30059882      -0.75818523        6 
C       2.19065270       1.11043168      -0.14369754        6 
C       2.05657343       2.49392973      -0.22490629        6 
C       0.79512239       3.08058816      -0.13435584        6 
C      -0.33163938       2.28042464       0.02001977        6 
H      -3.61449262      -1.15800706      -0.67608162        1 
H       1.91198999      -3.66488352      -0.50724666        1 
H       0.68890614       4.15751349      -0.19100587        1 
H      -3.99798907      -0.27549789       0.82003298        1 
H      -4.46248071       0.41773909      -0.76667426        1 
H       0.60069347      -3.67890695      -1.72838397        1 
H       0.21009353      -3.59601540       0.02022570        1 
H       2.93747880       3.11242515      -0.35262792        1 
H      -1.31790510       2.72256045       0.07274857        1 
H       3.17074415       0.65159401      -0.19986367        1 
