24
Lattice="0.0 0.0 0.0 0.0 0.0 0.0 0.0 0.0 0.0" Properties=species:S:1:pos:R:3:Z:I:1 pbc="F F F"
C       0.94800969      -0.65035422      -0.08770282        6 
C       0.64787296       0.70055974       0.13504827        6 
C      -0.09282983      -1.71896047       0.01009700        6 
C      -0.75908885       1.14745638       0.41251081        6 
O      -1.24484687      -1.34972454      -0.58624446        8 
O       0.06309892      -2.77228324       0.57805350        8 
O      -1.27172702       1.81754589      -0.63356484        8 
O      -1.33428095       0.98148309       1.46010405        8 
C      -2.62696890       2.28185530      -0.47970109        6 
C      -2.36385604      -2.24005147      -0.41411176        6 
C       2.27374845      -1.04140258      -0.29002757        6 
C       3.28970246      -0.09300631      -0.31656200        6 
C       2.98757691       1.25267937      -0.11102545        6 
C       1.67116387       1.64787056       0.11226597        6 
H      -3.29835193       1.43517786      -0.32791668        1 
H      -2.12414779      -3.23374437      -0.79407394        1 
H       3.77657147       1.99577327      -0.12237051        1 
H      -2.70655901       2.96114079       0.37018826        1 
H      -2.86273575       2.79621627      -1.40840974        1 
H      -3.17618270      -1.79640484      -0.98546584        1 
H      -2.62832692      -2.30711434       0.64230054        1 
H       4.31393015      -0.40239465      -0.48807324        1 
H       1.43559792       2.69251851       0.27748875        1 
H       2.49177139      -2.09398907      -0.42439427        1 
