24
Lattice="0.0 0.0 0.0 0.0 0.0 0.0 0.0 0.0 0.0" Properties=species:S:1:pos:R:3:Z:I:1 pbc="F F F"
C       0.46166103      -0.79392809      -0.09814860        6 
C      -0.92046247      -0.55940294      -0.02440178        6 
C       1.39940545       0.35949522      -0.21886797        6 
C      -1.51647196       0.80678048      -0.22710199        6 
O       2.60827739       0.08423988       0.31323557        8 
O       1.13422190       1.40893109      -0.75749859        8 
O      -1.43065600       1.54862528       0.89009262        8 
O      -2.01985605       1.17286432      -1.25755774        8 
C      -1.87536097       2.91453227       0.76706508        6 
C       3.59643789       1.12444947       0.19228041        6 
C       0.94354799      -2.10436917       0.00289931        6 
C       0.06375752      -3.17262093       0.14220685        6 
C      -1.30850163      -2.93716371       0.20980132        6 
C      -1.79611208      -1.63633146       0.12086856        6 
H      -1.28301189       3.42742518       0.00832851        1 
H       3.78741362       1.34720225      -0.85856409        1 
H      -1.99936815      -3.76471954       0.32460745        1 
H      -2.93073631       2.94969860       0.49272835        1 
H      -1.71798036       3.35862664       1.74721385        1 
H       4.48971237       0.73059997       0.67158249        1 
H       3.25664864       2.03051458       0.69565446        1 
H       0.44724518      -4.18446120       0.20365172        1 
H      -2.86343900      -1.45195647       0.15738915        1 
H       2.01113690      -2.27562466      -0.03395140        1 
