24
Lattice="0.0 0.0 0.0 0.0 0.0 0.0 0.0 0.0 0.0" Properties=species:S:1:pos:R:3:Z:I:1 pbc="F F F"
C       0.69162846       0.55141759      -0.04336143        6 
C      -0.71624329       0.50962946      -0.14967647        6 
C       1.59721635      -0.63548386      -0.22110036        6 
C      -1.51312988      -0.76765539      -0.13944362        6 
O       2.61689576      -0.58914602       0.67402265        8 
O       1.47921219      -1.50498134      -1.04134558        8 
O      -2.70253825      -0.56334776       0.48928349        8 
O      -1.20477348      -1.83193577      -0.60594731        8 
C      -3.58536270      -1.69738779       0.53471136        6 
C       3.57980995      -1.65375027       0.56987821        6 
C       1.32369501       1.79260195       0.10298724        6 
C       0.59958735       2.97967577       0.09895955        6 
C      -0.78464180       2.94092619      -0.03519800        6 
C      -1.43137050       1.71432797      -0.12877305        6 
H      -3.85260703      -2.01632661      -0.47426214        1 
H       3.09772293      -2.61912461       0.73179236        1 
H      -1.36277717       3.85750403      -0.04823319        1 
H      -3.11334888      -2.53010274       1.05846817        1 
H      -4.46580985      -1.35544544       1.07482810        1 
H       4.31436481      -1.45635970       1.34755170        1 
H       4.04993091      -1.65053361      -0.41495084        1 
H       1.11685612       3.92702795       0.19702933        1 
H      -2.51066258       1.67660210      -0.17785118        1 
H       2.40046688       1.81604893       0.20543560        1 
