24
Lattice="0.0 0.0 0.0 0.0 0.0 0.0 0.0 0.0 0.0" Properties=species:S:1:pos:R:3:Z:I:1 pbc="F F F"
C       0.76630449      -0.68051534      -0.16406269        6 
C       0.77561372       0.69180470       0.16086052        6 
C      -0.44624096      -1.56080454      -0.11721841        6 
C      -0.42527728       1.58620892       0.09849058        6 
O      -1.34958497      -1.13318383       0.78512995        8 
O      -0.54350974      -2.61217102      -0.70667401        8 
O      -1.37123624       1.11045880      -0.73354817        8 
O      -0.48642806       2.67699741       0.61717629        8 
C      -2.55426289       1.91435338      -0.87613466        6 
C      -2.54193705      -1.92669373       0.91064908        6 
C       1.97860536      -1.35110246      -0.33953164        6 
C       3.19145908      -0.68828553      -0.17495384        6 
C       3.20107334       0.65541653       0.18958903        6 
C       1.99882761       1.34081942       0.34187167        6 
H      -3.07040006       2.00191755       0.08164198        1 
H      -3.09713157      -1.92524047      -0.02923187        1 
H       4.14030390       1.17592462       0.33629162        1 
H      -2.30027922       2.91093881      -1.23961595        1 
H      -3.17457585       1.38838232      -1.59850447        1 
H      -3.12256809      -1.45220108       1.69861169        1 
H      -2.29390172      -2.95434739       1.17936140        1 
H       4.12239046      -1.22570694      -0.31408080        1 
H       1.98771435       2.39796487       0.57560132        1 
H       1.95035556      -2.40682353      -0.57904085        1 
