24
Lattice="0.0 0.0 0.0 0.0 0.0 0.0 0.0 0.0 0.0" Properties=species:S:1:pos:R:3:Z:I:1 pbc="F F F"
C      -0.52920905      -0.72726988       0.11075731        6 
C      -0.98693425       0.59128262      -0.02585086        6 
C       0.92171552      -1.01044607       0.33796759        6 
C      -0.05696881       1.75859043       0.10330869        6 
O       1.35925209      -1.99918904      -0.46594812        8 
O       1.60395559      -0.47560172       1.17877314        8 
O       0.93497774       1.69076837      -0.80455175        8 
O      -0.17358565       2.63439790       0.92274568        8 
C       1.98536588       2.66629326      -0.66358925        6 
C       2.72683319      -2.40846437      -0.27319150        6 
C      -1.43886709      -1.78547544       0.03164560        6 
C      -2.79667139      -1.53539465      -0.14397000        6 
C      -3.25335490      -0.22343790      -0.25867606        6 
C      -2.35150418       0.83501023      -0.19014092        6 
H       1.58008318       3.67714789      -0.72122056        1 
H       3.40296286      -1.57535739      -0.46995720        1 
H      -4.30977270      -0.02444638      -0.39760293        1 
H       2.48952826       2.52746947       0.29406222        1 
H       2.66759816       2.47719505      -1.48915717        1 
H       2.89018844      -3.21195353      -0.98765518        1 
H       2.87898219      -2.76160178       0.74792321        1 
H      -3.49561147      -2.36254544      -0.19244626        1 
H      -2.69958038       1.85826112      -0.26525855        1 
H      -1.07721613      -2.80267768       0.11627222        1 
