24
Lattice="0.0 0.0 0.0 0.0 0.0 0.0 0.0 0.0 0.0" Properties=species:S:1:pos:R:3:Z:I:1 pbc="F F F"
C       0.87893384      -0.67423607      -0.10771292        6 
C       0.69205740       0.69605202       0.14058881        6 
C      -0.21066233      -1.69735462      -0.04882796        6 
C      -0.65518418       1.33610979       0.33354888        6 
O      -1.44123457      -1.15409901      -0.00100993        8 
O      -0.01404141      -2.89009417      -0.00376659        8 
O      -1.25422221       1.56187014      -0.84833585        8 
O      -1.09715045       1.68910958       1.39852468        8 
C      -2.56643596       2.15028185      -0.78662804        6 
C      -2.53975781      -2.07154585       0.15007087        6 
C       2.17626398      -1.16420118      -0.29984077        6 
C       3.27178972      -0.31171633      -0.26745173        6 
C       3.08358595       1.04491857      -0.00818591        6 
C       1.80020677       1.54257696       0.19815199        6 
H      -3.24311782       1.50216926      -0.22706637        1 
H      -2.58303535      -2.75659257      -0.69762995        1 
H       3.93347140       1.71617915       0.03514480        1 
H      -2.52681875       3.12900150      -0.30647159        1 
H      -2.89081431       2.24182571      -1.82072833        1 
H      -3.43116370      -1.44955342       0.18766639        1 
H      -2.43150476      -2.64348024       1.07251687        1 
H       4.26848570      -0.70549547      -0.42772696        1 
H       1.65064362       2.59578503       0.40479500        1 
H       2.30103585      -2.22753683      -0.46133742        1 
