24
Lattice="0.0 0.0 0.0 0.0 0.0 0.0 0.0 0.0 0.0" Properties=species:S:1:pos:R:3:Z:I:1 pbc="F F F"
C       0.85118180      -0.70264564       0.08128458        6 
C       0.74848217       0.68003794      -0.11526031        6 
C      -0.30844211      -1.61527939      -0.19202378        6 
C      -0.57769088       1.33396459      -0.38479400        6 
O      -1.33042648      -1.41228428       0.66081470        8 
O      -0.34370445      -2.39695449      -1.10984439        8 
O      -1.20268292       1.65303323       0.76035135        8 
O      -1.00784483       1.58415180      -1.48412373        8 
C      -2.50389001       2.25755060       0.62353826        6 
C      -2.52890960      -2.17220291       0.40208666        6 
C       2.10198387      -1.27429635       0.32399327        6 
C       3.23436842      -0.47306612       0.42225100        6 
C       3.12978754       0.90356830       0.22943839        6 
C       1.89084437       1.47707502      -0.04228158        6 
H      -2.43966740       3.18020824       0.04533945        1 
H      -2.92608125      -1.92466684      -0.58352039        1 
H       4.01176475       1.53059629       0.28668791        1 
H      -3.18798437       1.56786683       0.12608532        1 
H      -2.83513521       2.45985277       1.63926376        1 
H      -3.22666102      -1.88334211       1.18470978        1 
H      -2.31986554      -3.24170035       0.44755571        1 
H       4.19784240      -0.92411452       0.62873010        1 
H       1.80569831       2.54563302      -0.20198677        1 
H       2.18039999      -2.35039451       0.42559283        1 
