24
Lattice="0.0 0.0 0.0 0.0 0.0 0.0 0.0 0.0 0.0" Properties=species:S:1:pos:R:3:Z:I:1 pbc="F F F"
C       0.74101985       0.76007272      -0.13738180        6 
C      -0.61243903       0.54465723       0.19991585        6 
C       1.79402939      -0.29957837      -0.30939796        6 
C      -1.27508258      -0.80601895       0.12828762        6 
O       1.78624220      -1.18736110       0.68740352        8 
O       2.63293009      -0.26619527      -1.18196449        8 
O      -2.54284030      -0.67106846      -0.33804267        8 
O      -0.81399984      -1.87510917       0.43811217        8 
C      -3.31097749      -1.88497935      -0.42082784        6 
C       2.73519184      -2.26423096       0.59938234        6 
C       1.21374451       2.07020418      -0.26362729        6 
C       0.39073800       3.16047968      -0.00500026        6 
C      -0.93421225       2.95065589       0.36690422        6 
C      -1.43420331       1.65545594       0.43346409        6 
H      -2.83060936      -2.59540418      -1.09509523        1 
H       2.61318360      -2.79955925      -0.34302252        1 
H      -1.58557209       3.79080515       0.57788492        1 
H      -3.41414136      -2.34080806       0.56522928        1 
H      -4.28174031      -1.58455774      -0.80924758        1 
H       2.50549175      -2.91456362       1.43993372        1 
H       3.75502612      -1.88226661       0.67059146        1 
H       0.78417372       4.16647167      -0.09300692        1 
H      -2.48019978       1.49278846       0.65433866        1 
H       2.24544211       2.21662158      -0.55749931        1 
