24
Lattice="0.0 0.0 0.0 0.0 0.0 0.0 0.0 0.0 0.0" Properties=species:S:1:pos:R:3:Z:I:1 pbc="F F F"
C       0.75636003       0.75270417       0.17689264        6 
C      -0.60423729       0.59294704      -0.14799214        6 
C       1.71462939      -0.39372731       0.34289498        6 
C      -1.26951924      -0.74085103       0.00641721        6 
O       1.83459424      -1.08682934      -0.79753072        8 
O       2.38317166      -0.57987008       1.33136755        8 
O      -2.60679277      -0.60838627       0.16296374        8 
O      -0.72273853      -1.81775530      -0.02034762        8 
C      -3.34711519      -1.83557561       0.29525351        6 
C       2.63299818      -2.28216880      -0.73409285        6 
C       1.30260608       2.03386494       0.25272853        6 
C       0.52412576       3.15401755      -0.02632694        6 
C      -0.81528114       2.99982272      -0.37607071        6 
C      -1.38014654       1.72950395      -0.40661979        6 
H      -3.23267383      -2.44843196      -0.60027383        1 
H       3.64614245      -2.05498362      -0.40005932        1 
H      -1.42622394       3.86710595      -0.59776322        1 
H      -2.99908497      -2.39868960       1.16221012        1 
H      -4.38397880      -1.53337162       0.42472603        1 
H       2.63944493      -2.67793748      -1.74708857        1 
H       2.16973426      -2.99488377      -0.05004817        1 
H       0.96497616       4.14275831       0.02760129        1 
H      -2.43372231       1.60698943      -0.61711638        1 
H       2.34700483       2.14303646       0.51890545        1 
