24
Lattice="0.0 0.0 0.0 0.0 0.0 0.0 0.0 0.0 0.0" Properties=species:S:1:pos:R:3:Z:I:1 pbc="F F F"
C       0.71516332       0.53956796       0.08142797        6 
C      -0.69282569       0.54411174      -0.05969268        6 
C       1.51527644      -0.70508930      -0.17285220        6 
C      -1.52318397      -0.67708805       0.21827581        6 
O       2.80314504      -0.56038398       0.22014893        8 
O       1.09131618      -1.71888934      -0.66599444        8 
O      -2.74746301      -0.58111337      -0.35299571        8 
O      -1.17637227      -1.62121898       0.87943255        8 
C      -3.63736702      -1.68449096      -0.10661043        6 
C       3.64918938      -1.70261285      -0.00139222        6 
C       1.39207103       1.76036353       0.14879981        6 
C       0.70621640       2.97195091       0.08282862        6 
C      -0.67190714       2.97515000      -0.09542246        6 
C      -1.36340197       1.76652395      -0.14982159        6 
H      -3.20511422      -2.61216338      -0.48429686        1 
H       3.26597025      -2.56908719       0.53953669        1 
H      -1.21493736       3.91022502      -0.17062764        1 
H      -3.83146781      -1.78846867       0.96229880        1 
H      -4.55339081      -1.44166740      -0.64101082        1 
H       4.62789871      -1.41491849       0.37633954        1 
H       3.70114874      -1.93967465      -1.06532463        1 
H       1.25418731       3.90491473       0.14533339        1 
H      -2.44169612       1.76143741      -0.23463533        1 
H       2.47051179       1.75115535       0.22567610        1 
