24
Lattice="0.0 0.0 0.0 0.0 0.0 0.0 0.0 0.0 0.0" Properties=species:S:1:pos:R:3:Z:I:1 pbc="F F F"
C       0.79663853       0.69098932      -0.18136748        6 
C      -0.56813886       0.57814331       0.17086196        6 
C       1.78506591      -0.44009184      -0.26281989        6 
C      -1.33619543      -0.70254858      -0.02309518        6 
O       1.61340586      -1.32538708       0.72440089        8 
O       2.72999048      -0.44789505      -1.01939634        8 
O      -2.66536445      -0.45036196      -0.13113659        8 
O      -0.89220739      -1.82237252      -0.07284789        8 
C      -3.50981826      -1.60263399      -0.29547945        6 
C       2.48919281      -2.46500043       0.72229412        6 
C       1.37345550       1.95935842      -0.28615789        6 
C       0.64163304       3.10904821      -0.00558552        6 
C      -0.68740637       2.99983779       0.39116483        6 
C      -1.28990088       1.74741810       0.44460891        6 
H      -3.23881661      -2.15051354      -1.19916729        1 
H       2.34535351      -3.04435859      -0.19111603        1 
H      -1.26527891       3.88594973       0.62690434        1 
H      -3.42196075      -2.26700462       0.56572938        1 
H      -4.52086542      -1.20879963      -0.37502580        1 
H       2.19864544      -3.05087907       1.59116396        1 
H       3.53175478      -2.15185571       0.79532034        1 
H       1.11363088       4.08140588      -0.08627611        1 
H      -2.34218474       1.66600216       0.67680135        1 
H       2.41655776       2.02470369      -0.56895554        1 
