24
Lattice="0.0 0.0 0.0 0.0 0.0 0.0 0.0 0.0 0.0" Properties=species:S:1:pos:R:3:Z:I:1 pbc="F F F"
C       0.88187146      -0.73391482      -0.06619476        6 
C       0.73941268       0.66135045      -0.12415020        6 
C      -0.27275793      -1.66905770       0.11198614        6 
C      -0.58772469       1.33839899      -0.33692127        6 
O      -1.37300068      -1.26382747      -0.54571581        8 
O      -0.23657173      -2.65468944       0.81135943        8 
O      -1.15058713       1.68656523       0.83682223        8 
O      -1.08337707       1.54524213      -1.41381143        8 
C      -2.44746256       2.31160635       0.75095558        6 
C      -2.56290947      -2.05057584      -0.35221019        6 
C       2.16185393      -1.29127662       0.02474428        6 
C       3.29130742      -0.48319707       0.01112330        6 
C       3.14783079       0.90227253      -0.04659908        6 
C       1.87835361       1.46890017      -0.11096363        6 
H      -2.38680491       3.24022606       0.18189753        1 
H      -2.40931233      -3.06754095      -0.71561783        1 
H       4.02244662       1.54235876      -0.04234558        1 
H      -3.15752199       1.63898354       0.26726199        1 
H      -2.74195261       2.50838515       1.77914149        1 
H      -3.33442991      -1.54934758      -0.93227531        1 
H      -2.82960367      -2.08269769       0.70535766        1 
H       4.27732061      -0.92977895       0.06159657        1 
H       1.76594351       2.54570834      -0.15986330        1 
H       2.25023087      -2.36665610       0.11812940        1 
