24
Lattice="0.0 0.0 0.0 0.0 0.0 0.0 0.0 0.0 0.0" Properties=species:S:1:pos:R:3:Z:I:1 pbc="F F F"
C       0.76204183      -0.64846596      -0.12565044        6 
C       0.88396004       0.74730777      -0.05330242        6 
C      -0.55800653      -1.33914410      -0.33675383        6 
C      -0.29640504       1.64670961       0.13441026        6 
O      -1.15970312      -1.61345883       0.83737359        8 
O      -1.01951608      -1.61305786      -1.41410152        8 
O      -1.34948675       1.26516288      -0.61074885        8 
O      -0.32340035       2.57188748       0.91124842        8 
C      -2.57396182       1.99592469      -0.41399101        6 
C      -2.45167865      -2.24850979       0.74900879        6 
C       1.91044879      -1.44247760      -0.12719266        6 
C       3.17190792      -0.86033462      -0.05367402        6 
C       3.29522005       0.52620391       0.02455218        6 
C       2.15534961       1.32082514       0.04682944        6 
H      -2.89899008       1.91864374       0.62492885        1 
H      -3.15200924      -1.60460593       0.21452599        1 
H       4.27545024       0.98430276       0.08268303        1 
H      -2.43550993       3.04699538      -0.67052628        1 
H      -3.29520030       1.53042015      -1.08188460        1 
H      -2.77213894      -2.39559656       1.77775485        1 
H      -2.37281878      -3.20381003       0.22851137        1 
H       4.05507413      -1.48866830      -0.05811292        1 
H       2.23239974       2.39597555       0.15219102        1 
H       1.81093950      -2.51985927      -0.19319268        1 
