24
Lattice="0.0 0.0 0.0 0.0 0.0 0.0 0.0 0.0 0.0" Properties=species:S:1:pos:R:3:Z:I:1 pbc="F F F"
C       0.75485231       0.61112895       0.23583178        6 
C      -0.55640906       0.80962775      -0.20835948        6 
C       1.26808798      -0.78836989       0.41218756        6 
C      -1.46198617      -0.36797642      -0.43696784        6 
O       2.12873785      -1.11527808      -0.56634118        8 
O       0.96922721      -1.52088114       1.32430794        8 
O      -2.24980396      -0.58474853       0.62671970        8 
O      -1.50334480      -1.01181948      -1.45751502        8 
C      -3.15035249      -1.70829397       0.53214858        6 
C       2.65863184      -2.45643841      -0.52085861        6 
C       1.58908902       1.70787306       0.44959626        6 
C       1.10509374       2.99914658       0.25598355        6 
C      -0.20456691       3.19667574      -0.17854407        6 
C      -1.03578278       2.10337808      -0.40748179        6 
H      -3.82563134      -1.58482000      -0.31560034        1 
H       3.17616858      -2.63148929       0.42310435        1 
H      -0.58019686       4.20066705      -0.33782946        1 
H      -2.58441414      -2.63333859       0.41529472        1 
H      -3.70167655      -1.71271290       1.46922614        1 
H       3.34798466      -2.52094652      -1.35924216        1 
H       1.85067621      -3.18102770      -0.63204400        1 
H       1.75261442       3.84917074       0.43631972        1 
H      -2.05636316       2.25145598      -0.74102505        1 
H       2.61236302       1.54791825       0.76809067        1 
