24
Lattice="0.0 0.0 0.0 0.0 0.0 0.0 0.0 0.0 0.0" Properties=species:S:1:pos:R:3:Z:I:1 pbc="F F F"
C       0.81786730      -0.67138704       0.20420206        6 
C       0.70673046       0.68715222      -0.15092079        6 
C      -0.27965619      -1.68427143       0.04787730        6 
C      -0.58191988       1.44805752      -0.28299421        6 
O      -1.51619145      -1.15832628       0.04302613        8 
O      -0.06612511      -2.85805644      -0.15585655        8 
O      -1.28750107       1.41879154       0.85904251        8 
O      -0.87409469       2.12681730      -1.23891283        8 
C      -2.54102529       2.12344862       0.84239033        6 
C      -2.59290978      -2.07321125      -0.23359082        6 
C       2.08951093      -1.20531992       0.44595933        6 
C       3.22849284      -0.41387071       0.37017475        6 
C       3.11705605       0.91976918      -0.01733910        6 
C       1.86280843       1.46089726      -0.28110014        6 
H      -2.38732042       3.17799222       0.60903099        1 
H      -2.46102876      -2.53160987      -1.21464993        1 
H       4.00183267       1.53825511      -0.11373820        1 
H      -3.20986707       1.68580191       0.09876782        1 
H      -2.95185657       2.00580243       1.84250156        1 
H      -3.49627577      -1.46769624      -0.21040398        1 
H      -2.63411048      -2.85423104       0.52672845        1 
H       4.20039505      -0.84468487       0.58033029        1 
H       1.76282383       2.49783547      -0.57764956        1 
H       2.16629226      -2.26332859       0.66240972        1 
