24
Lattice="0.0 0.0 0.0 0.0 0.0 0.0 0.0 0.0 0.0" Properties=species:S:1:pos:R:3:Z:I:1 pbc="F F F"
C      -0.65097700      -0.67837018       0.12865155        6 
C      -0.91644555       0.67837352      -0.11163440        6 
C       0.72979788      -1.21744621       0.38214360        6 
C       0.13116536       1.73952785      -0.03695243        6 
O       1.27735869      -1.68225094      -0.75328139        8 
O       1.23676895      -1.31345824       1.47201873        8 
O       1.35908551       1.26388584      -0.32096695        8 
O      -0.08540360       2.88708195       0.27358871        8 
C       2.45425749       2.17940489      -0.14027940        6 
C       2.59719493      -2.24430123      -0.63177086        6 
C      -1.70515143      -1.59419746       0.14410229        6 
C      -3.01288304      -1.17270406      -0.07815440        6 
C      -3.28013384       0.17536796      -0.31353307        6 
C      -2.23807963       1.09442451      -0.31316795        6 
H       2.34039491       3.04343255      -0.79610978        1 
H       3.29014835      -1.49685585      -0.24239997        1 
H      -4.29699958       0.50854341      -0.48488876        1 
H       2.49792853       2.51386932       0.89710935        1 
H       3.34728737       1.61549285      -0.39971145        1 
H       2.87846660      -2.54139303      -1.63943254        1 
H       2.58634297      -3.10701873       0.03615010        1 
H      -3.82035087      -1.89612626      -0.06536063        1 
H      -2.42854643       2.14976750      -0.46372214        1 
H      -1.49833609      -2.64109194       0.33419556        1 
