24
Lattice="0.0 0.0 0.0 0.0 0.0 0.0 0.0 0.0 0.0" Properties=species:S:1:pos:R:3:Z:I:1 pbc="F F F"
C      -0.02768910      -0.84646681      -0.04161077        6 
C      -1.10012227       0.05552107       0.12905874        6 
C       1.38354235      -0.45209147       0.26938601        6 
C      -0.97288070       1.55027538       0.11351105        6 
O       2.27352881      -1.28113531      -0.32088913        8 
O       1.70761342       0.46739659       0.98013314        8 
O       0.06180547       1.96097644      -0.63568713        8 
O      -1.79459679       2.29945247       0.58950262        8 
C       0.26694882       3.38186081      -0.70600594        6 
C       3.65778219      -1.02689293      -0.02389139        6 
C      -0.30817536      -2.20100833      -0.25186368        6 
C      -1.62064795      -2.66727665      -0.28467323        6 
C      -2.67420649      -1.78228099      -0.07946469        6 
C      -2.40981703      -0.42867567       0.11521392        6 
H      -0.61200392       3.87557989      -1.12313176        1 
H       3.93915406      -0.02418339      -0.34898388        1 
H      -3.69840997      -2.13742828      -0.08505945        1 
H       0.47019996       3.78121166       0.28875734        1 
H       1.12963767       3.51632312      -1.35444735        1 
H       4.21501810      -1.77986538      -0.57679845        1 
H       3.84163291      -1.12051364       1.04767955        1 
H      -1.81377934      -3.72094755      -0.45090974        1 
H      -3.21874593       0.28091620       0.23582211        1 
H       0.51532664      -2.89377491      -0.36094401        1 
