24
Lattice="0.0 0.0 0.0 0.0 0.0 0.0 0.0 0.0 0.0" Properties=species:S:1:pos:R:3:Z:I:1 pbc="F F F"
C       0.68513520       0.55512373       0.04419709        6 
C      -0.72199448       0.50519067       0.15532530        6 
C       1.59943000      -0.62520460       0.22273436        6 
C      -1.51039093      -0.77748082       0.14878983        6 
O       2.61312765      -0.57583800      -0.67907392        8 
O       1.49085397      -1.49297410       1.04602664        8 
O      -2.70609260      -0.58100745      -0.47003871        8 
O      -1.19022314      -1.84072677       0.60982628        8 
C      -3.58120622      -1.72161685      -0.50989702        6 
C       3.58279145      -1.63498534      -0.57894026        6 
C       1.30944353       1.79979312      -0.10687580        6 
C       0.57815623       2.98241250      -0.10397875        6 
C      -0.80552825       2.93566975       0.03308971        6 
C      -1.44461107       1.70548777       0.13150184        6 
H      -3.11141889      -2.54627278      -1.04829022        1 
H       4.07266686      -1.61513898       0.39608273        1 
H      -1.38939757       3.84867115       0.04175284        1 
H      -3.82873574      -2.05086369       0.50070342        1 
H      -4.47286378      -1.38203702      -1.03273669        1 
H       4.30060317      -1.44544036      -1.37394701        1 
H       3.10191767      -2.60461213      -0.71682913        1 
H       1.08943435       3.93267852      -0.20549561        1 
H      -2.52353236       1.66128918       0.18243568        1 
H       2.38571799       1.82964952      -0.21277042        1 
