24
Lattice="0.0 0.0 0.0 0.0 0.0 0.0 0.0 0.0 0.0" Properties=species:S:1:pos:R:3:Z:I:1 pbc="F F F"
C       0.89161631      -0.72449310       0.07534174        6 
C       0.71923591       0.66854600       0.12391594        6 
C      -0.23691177      -1.69676999      -0.06452780        6 
C      -0.61627192       1.32837298       0.33947753        6 
O      -1.39248509      -1.22814203       0.43812150        8 
O      -0.13496354      -2.77162514      -0.60965887        8 
O      -1.17792871       1.68269720      -0.83254595        8 
O      -1.11024788       1.53108619       1.41802243        8 
C      -2.47807971       2.29959748      -0.74585316        6 
C      -2.55242885      -2.06361547       0.27238902        6 
C       2.18397711      -1.25364714      -0.01711581        6 
C       3.29528835      -0.42112889      -0.02495159        6 
C       3.12148431       0.96131839       0.01955301        6 
C       1.84039950       1.50007261       0.09199159        6 
H      -3.18841740       1.61447308      -0.28033696        1 
H      -2.75002155      -2.23435866      -0.78705917        1 
H       3.98136164       1.62086842      -0.00030255        1 
H      -2.42731478       3.21808716      -0.15969298        1 
H      -2.76569167       2.51317099      -1.77268884        1 
H      -3.36898637      -1.51405549       0.73527340        1 
H      -2.40464468      -3.02265583       0.77048571        1 
H       4.29041415      -0.84642072      -0.08013481        1 
H       1.70507047       2.57459379       0.13225840        1 
H       2.29265751      -2.32818490      -0.09546572        1 
