24
Lattice="0.0 0.0 0.0 0.0 0.0 0.0 0.0 0.0 0.0" Properties=species:S:1:pos:R:3:Z:I:1 pbc="F F F"
C       0.69363435       0.70299860      -0.16714241        6 
C      -0.66897502       0.66012909       0.15549547        6 
C       1.44358357      -0.57631979      -0.39324992        6 
C      -1.35084098      -0.66205596       0.32357659        6 
O       2.42694615      -0.74189203       0.50476397        8 
O       1.21614961      -1.33806859      -1.30208224        8 
O      -2.47123513      -0.74039230      -0.41590071        8 
O      -0.97755146      -1.52831581       1.07842290        8 
C      -3.22275541      -1.96502135      -0.29215071        6 
C       3.18379269      -1.96447282       0.38391356        6 
C       1.33723270       1.93314783      -0.29048398        6 
C       0.61951374       3.11590017      -0.12627388        6 
C      -0.74080764       3.07368151       0.17450073        6 
C      -1.38654206       1.84719762       0.30440953        6 
H      -2.61167376      -2.81457350      -0.59904874        1 
H       2.52041934      -2.82438011       0.48341448        1 
H      -1.29955354       3.99347769       0.30257826        1 
H      -3.55004782      -2.10818493       0.73877643        1 
H      -4.07644670      -1.84607138      -0.95525898        1 
H       3.90472169      -1.93770473       1.19743276        1 
H       3.68933137      -2.00578799      -0.58199548        1 
H       1.12355839       4.06936796      -0.23346836        1 
H      -2.44553178       1.80357363       0.52762735        1 
H       2.39444860       1.96220361      -0.52518938        1 
