24
Lattice="0.0 0.0 0.0 0.0 0.0 0.0 0.0 0.0 0.0" Properties=species:S:1:pos:R:3:Z:I:1 pbc="F F F"
C       0.80147884      -0.43637702       0.24239726        6 
C       0.58303221       0.89413288      -0.13574154        6 
C      -0.33767991      -1.40803485       0.35960811        6 
C      -0.79869918       1.41086752      -0.42109959        6 
O      -0.25301966      -2.35054578      -0.60145475        8 
O      -1.19510109      -1.39092616       1.20728408        8 
O      -1.49254852       1.60736914       0.70747140        8 
O      -1.22186347       1.63272469      -1.53060073        8 
C      -2.86544573       2.01750154       0.55200526        6 
C      -1.27465904      -3.36779176      -0.58253238        6 
C       2.10604949      -0.89527326       0.43537264        6 
C       3.18402721      -0.02673907       0.29624635        6 
C       2.96580491       1.29684417      -0.08195890        6 
C       1.67009452       1.75067392      -0.31088277        6 
H      -2.92098130       2.98436962       0.04969970        1 
H      -1.24290709      -3.92245812       0.35645966        1 
H       3.80317650       1.97311146      -0.20761487        1 
H      -3.41638055       1.27500231      -0.02684935        1 
H      -3.25997693       2.08303113       1.56299406        1 
H      -1.04653169      -4.01928475      -1.42286285        1 
H      -2.26079978      -2.91728289      -0.70245976        1 
H       4.19169797      -0.38693753       0.46720027        1 
H       1.49458622       2.77193498      -0.62783821        1 
H       2.27134560      -1.93503625       0.69170426        1 
