24
Lattice="0.0 0.0 0.0 0.0 0.0 0.0 0.0 0.0 0.0" Properties=species:S:1:pos:R:3:Z:I:1 pbc="F F F"
C       0.69908673       0.66865580       0.06685540        6 
C      -0.70619962       0.60132936       0.04809894        6 
C       1.54270716      -0.54028803       0.35813687        6 
C      -1.38541444      -0.72099825      -0.10950550        6 
O       2.47834571      -0.73023316      -0.59044282        8 
O       1.42775832      -1.21948750       1.34625438        8 
O      -2.71709586      -0.63685142       0.10068426        8 
O      -0.82768023      -1.75205273      -0.40050161        8 
C      -3.45606210      -1.86178322      -0.05728036        6 
C       3.33010946      -1.87813328      -0.40143265        6 
C       1.32939591       1.91060188       0.00352469        6 
C       0.57898111       3.08376815      -0.05645000        6 
C      -0.81172547       3.02124125      -0.05117732        6 
C      -1.44893694       1.78424033      -0.01260987        6 
H      -3.35914737      -2.23723712      -1.07731060        1 
H       3.89622620      -1.78533313       0.52667262        1 
H      -1.40045478       3.93004978      -0.09496999        1 
H      -3.09245016      -2.61779904       0.63996168        1 
H      -4.49032969      -1.60429456       0.16009193        1 
H       3.99672900      -1.88709701      -1.26072542        1 
H       2.72869823      -2.78749245      -0.36898680        1 
H       1.08217469       4.04273951      -0.10095393        1 
H      -2.52817867       1.72239573      -0.04862896        1 
H       2.41150017       1.95531982       0.01856906        1 
