24
Lattice="0.0 0.0 0.0 0.0 0.0 0.0 0.0 0.0 0.0" Properties=species:S:1:pos:R:3:Z:I:1 pbc="F F F"
C       0.68475620       0.64946360      -0.19215875        6 
C      -0.65462346       0.73870689       0.20481832        6 
C       1.31579634      -0.70118390      -0.32973340        6 
C      -1.45952360      -0.50900700       0.43788493        6 
O       2.40556516      -0.82154809       0.44813964        8 
O       0.92647081      -1.56194459      -1.08328665        8 
O      -2.28700263      -0.75084778      -0.58925360        8 
O      -1.40496308      -1.17619410       1.44248296        8 
C      -3.08680615      -1.94746452      -0.48927564        6 
C       3.09213902      -2.08783737       0.37366419        6 
C       1.42828278       1.81298356      -0.39341919        6 
C       0.82423083       3.05919821      -0.25125569        6 
C      -0.51462454       3.14639160       0.12755433        6 
C      -1.25395325       1.98817309       0.35311334        6 
H      -2.44022119      -2.82462071      -0.44419751        1 
H       2.43342238      -2.89181421       0.70460380        1 
H      -0.98499728       4.11557576       0.24668825        1 
H      -3.71777787      -1.91252815       0.39986282        1 
H      -3.69187523      -1.96376895      -1.39262502        1 
H       3.94513938      -1.99160620       1.04119776        1 
H       3.41877230      -2.28502661      -0.64825503        1 
H       1.39947909       3.96053849      -0.42746511        1 
H      -2.29534855       2.05179678       0.64645006        1 
H       2.47333639       1.73637965      -0.66761523        1 
