24
Lattice="0.0 0.0 0.0 0.0 0.0 0.0 0.0 0.0 0.0" Properties=species:S:1:pos:R:3:Z:I:1 pbc="F F F"
C      -0.69469051      -0.65792780      -0.12845148        6 
C      -0.83512902       0.70202253       0.19907546        6 
C       0.61410441      -1.37170322      -0.31989493        6 
C       0.25198395       1.71550994       0.00908744        6 
O       1.28819052      -1.47275869       0.83624783        8 
O       0.94592092      -1.91671478      -1.34547418        8 
O       1.48418200       1.23126860       0.24135380        8 
O       0.04554209       2.83584869      -0.39683160        8 
C       2.57807262       2.11744116      -0.06065079        6 
C       2.54169184      -2.17610158       0.77257435        6 
C      -1.83102191      -1.46912097      -0.20528632        6 
C      -3.09288706      -0.95730578       0.07811596        6 
C      -3.23369549       0.38528824       0.42507493        6 
C      -2.11633373       1.21071604       0.44937075        6 
H       2.56200086       2.39315092      -1.11599741        1 
H       2.38975412      -3.20165552       0.43284236        1 
H      -4.21311738       0.79348672       0.64566304        1 
H       2.51657809       3.01946795       0.54925546        1 
H       3.47763385       1.55411124       0.17704035        1 
H       2.93279363      -2.16034167       1.78725777        1 
H       3.22498525      -1.66966737       0.08864112        1 
H      -3.96123962      -1.60404530       0.02512578        1 
H      -2.22164592       2.27136201       0.64031495        1 
H      -1.71386981      -2.51060086      -0.48037913        1 
