24
Lattice="0.0 0.0 0.0 0.0 0.0 0.0 0.0 0.0 0.0" Properties=species:S:1:pos:R:3:Z:I:1 pbc="F F F"
C      -0.11476262      -0.86447458      -0.00784366        6 
C      -1.11386283       0.12372278       0.07062495        6 
C       1.31689900      -0.52998067       0.26227500        6 
C      -0.82709879       1.59316300       0.12712771        6 
O       2.15525738      -1.41406078      -0.31907757        8 
O       1.69270779       0.39060839       0.94783653        8 
O       0.10496911       1.94708452      -0.77417774        8 
O      -1.42933126       2.37381619       0.82398135        8 
C       0.52666097       3.32173482      -0.73858164        6 
C       3.55580906      -1.21920536      -0.05281321        6 
C      -0.48914543      -2.20257044      -0.17062172        6 
C      -1.83259222      -2.56251291      -0.24081120        6 
C      -2.81918162      -1.58564219      -0.13543953        6 
C      -2.45768014      -0.24947284       0.01969884        6 
H      -0.32241988       3.98901286      -0.89239490        1 
H       3.87753232      -0.23905868      -0.40755381        1 
H      -3.86705607      -1.86017290      -0.17694633        1 
H       0.99431717       3.53999794       0.22279514        1 
H       1.24784137       3.42350418      -1.54636147        1 
H       4.06596440      -2.01096052      -0.59682308        1 
H       3.75467137      -1.29625733       1.01735578        1 
H      -2.10593468      -3.60415057      -0.36437147        1 
H      -3.21487869       0.52186872       0.09026444        1 
H       0.28081180      -2.96127503      -0.21820128        1 
