24
Lattice="0.0 0.0 0.0 0.0 0.0 0.0 0.0 0.0 0.0" Properties=species:S:1:pos:R:3:Z:I:1 pbc="F F F"
C       0.60605364       0.56174779      -0.17354365        6 
C      -0.75124721       0.70570147       0.18840520        6 
C       1.33048000      -0.74659191      -0.01447903        6 
C      -1.76402268      -0.40118354       0.30677246        6 
O       2.65164232      -0.53639037       0.20743245        8 
O       0.85769417      -1.85417016      -0.07660866        8 
O      -1.69771571      -1.25294900      -0.72195079        8 
O      -2.64708194      -0.41056135       1.13452906        8 
C      -2.63311059      -2.34482373      -0.70773358        6 
C       3.45260567      -1.72213756       0.35775000        6 
C       1.35419139       1.71271297      -0.45231676        6 
C       0.77779963       2.97769942      -0.40448225        6 
C      -0.54783293       3.11781580      -0.00471722        6 
C      -1.30089476       1.98653463       0.29148834        6 
H      -2.46610183      -2.96922315       0.17118397        1 
H       3.10646924      -2.31027944       1.20899084        1 
H      -0.99963675       4.10031288       0.06922758        1 
H      -3.65893163      -1.97294456      -0.70030820        1 
H      -2.43073642      -2.90685058      -1.61643142        1 
H       4.46645567      -1.36534779       0.52509317        1 
H       3.40185241      -2.33458203      -0.54382664        1 
H       1.37225591       3.85020177      -0.64912262        1 
H      -2.33911423       2.07763165       0.58553665        1 
H       2.40313098       1.60589841      -0.69045684        1 
