24
Lattice="0.0 0.0 0.0 0.0 0.0 0.0 0.0 0.0 0.0" Properties=species:S:1:pos:R:3:Z:I:1 pbc="F F F"
C       0.74484693      -0.67481028       0.13559193        6 
C       0.86615741       0.71595171      -0.02228833        6 
C      -0.57154387      -1.38679542       0.27330079        6 
C      -0.29285522       1.65870977      -0.03250317        6 
O      -1.22341715      -1.42999443      -0.90390342        8 
O      -0.96503585      -1.90581349       1.28718811        8 
O      -1.41146725       1.10125795       0.46912939        8 
O      -0.23578363       2.80382352      -0.41682171        8 
C      -2.59236173       1.92184356       0.47534937        6 
C      -2.51844667      -2.05915928      -0.88245750        6 
C       1.89260488      -1.46786723       0.17543464        6 
C       3.15325712      -0.89527405       0.03572824        6 
C       3.27602108       0.48204034      -0.14034318        6 
C       2.13837197       1.27959095      -0.16628118        6 
H      -2.43356531       2.81271607       1.08434880        1 
H      -2.43257861      -3.10330695      -0.57849576        1 
H       4.25503692       0.93330418      -0.24980934        1 
H      -2.85263198       2.22013313      -0.54130852        1 
H      -3.37258322       1.29878009       0.90689566        1 
H      -2.89254990      -1.98543977      -1.90112181        1 
H      -3.18005580      -1.53649845      -0.18952649        1 
H       4.03545013      -1.52440541       0.06364313        1 
H       2.21172746       2.35224155      -0.29373585        1 
H       1.79045872      -2.53815348       0.31188329        1 
