24
Lattice="0.0 0.0 0.0 0.0 0.0 0.0 0.0 0.0 0.0" Properties=species:S:1:pos:R:3:Z:I:1 pbc="F F F"
C       0.95555426      -0.63282397       0.06949557        6 
C       0.56994115       0.71994396       0.07697600        6 
C       0.00304389      -1.78449200      -0.02122768        6 
C      -0.83217994       1.17853393       0.36689032        6 
O      -1.28243215      -1.39645253      -0.07773820        8 
O       0.34907370      -2.94035017      -0.11438521        8 
O      -1.36023482       1.83308875      -0.68542205        8 
O      -1.39046358       1.03593717       1.42460999        8 
C      -2.69632239       2.34002400      -0.50130615        6 
C      -2.26588937      -2.44062452      -0.18302722        6 
C       2.31411285      -0.95434033      -0.01958823        6 
C       3.28160313       0.04012624      -0.09237543        6 
C       2.89505043       1.37830657      -0.11203679        6 
C       1.54595473       1.71251195      -0.02956697        6 
H      -3.38451120       1.52028528      -0.28961378        1 
H      -2.13828498      -2.99062441      -1.11674358        1 
H       3.63986712       2.16220361      -0.18685294        1 
H      -2.72526077       3.05497600       0.32235507        1 
H      -2.95345427       2.82417557      -1.44064382        1 
H      -3.22696401      -1.93174462      -0.16347565        1 
H      -2.17939874      -3.12973289       0.65768587        1 
H       4.32958078      -0.22901879      -0.15203025        1 
H       1.24236040       2.75261950      -0.03219526        1 
H       2.58789890      -2.00151615      -0.04820242        1 
