24
Lattice="0.0 0.0 0.0 0.0 0.0 0.0 0.0 0.0 0.0" Properties=species:S:1:pos:R:3:Z:I:1 pbc="F F F"
C       0.86283230      -0.67918966       0.17673113        6 
C       0.70172697       0.68358587      -0.12187214        6 
C      -0.22354851      -1.69560943       0.00155390        6 
C      -0.63333424       1.33984734      -0.33979830        6 
O      -1.44917762      -1.22179716       0.29246442        8 
O      -0.02800325      -2.80884097      -0.42733948        8 
O      -1.27365529       1.53547806       0.82386911        8 
O      -1.02730232       1.74448365      -1.40667277        8 
C      -2.57339550       2.14671358       0.73233625        6 
C      -2.55203206      -2.10769439       0.02084701        6 
C       2.14849176      -1.17957965       0.41326445        6 
C       3.25331113      -0.33816189       0.40167132        6 
C       3.09107906       1.01118773       0.09083474        6 
C       1.82199603       1.51512520      -0.17647285        6 
H      -2.50352797       3.13355157       0.27270877        1 
H      -2.57246637      -2.37522160      -1.03643175        1 
H       3.95048958       1.67035034       0.05224051        1 
H      -3.24251605       1.52097930       0.13888655        1 
H      -2.92911345       2.22301236       1.75725747        1 
H      -3.44391386      -1.54821606       0.29406592        1 
H      -2.46894272      -3.01418007       0.62176326        1 
H       4.23934747      -0.73770769       0.60741262        1 
H       1.69038221       2.56139426      -0.42583859        1 
H       2.26464215      -2.24232997       0.58638118        1 
