24
Lattice="0.0 0.0 0.0 0.0 0.0 0.0 0.0 0.0 0.0" Properties=species:S:1:pos:R:3:Z:I:1 pbc="F F F"
C       0.89791055      -0.67288193       0.14601172        6 
C       0.69353508       0.68786578      -0.12400092        6 
C      -0.18317704      -1.69473939      -0.01353335        6 
C      -0.67318311       1.26029306      -0.38041701        6 
O      -1.37439547      -1.26219471       0.44458251        8 
O      -0.02225743      -2.76542833      -0.54865326        8 
O      -1.25647787       1.65076671       0.76399477        8 
O      -1.14905768       1.42564040      -1.47684926        8 
C      -2.58632797       2.18945490       0.64110294        6 
C      -2.50053685      -2.12697838       0.20044130        6 
C       2.19566855      -1.14251360       0.37262818        6 
C       3.27299711      -0.26548570       0.38184459        6 
C       3.06670622       1.08711304       0.11275048        6 
C       1.78274719       1.55955161      -0.14340892        6 
H      -2.58747632       3.06853150      -0.00472235        1 
H      -2.64511242      -2.26474533      -0.87209498        1 
H       3.90467925       1.77430357       0.09800615        1 
H      -3.25815314       1.43653895       0.22529856        1 
H      -2.88563293       2.45312605       1.65279210        1 
H      -3.35486825      -1.61821000       0.64137538        1 
H      -2.34560252      -3.09764909       0.67298195        1 
H       4.27169702      -0.63760114       0.57758229        1 
H       1.62048202       2.60853606      -0.36201558        1 
H       2.34354201      -2.20412980       0.52911857        1 
