24
Lattice="0.0 0.0 0.0 0.0 0.0 0.0 0.0 0.0 0.0" Properties=species:S:1:pos:R:3:Z:I:1 pbc="F F F"
C       0.87778384      -0.71523182       0.02622165        6 
C       0.76157761       0.68062330       0.12087803        6 
C      -0.29493263      -1.63699805      -0.06687326        6 
C      -0.55984732       1.37694966       0.29421995        6 
O      -1.38402849      -1.14385786       0.55228032        8 
O      -0.27830593      -2.69987657      -0.64241263        8 
O      -1.20183600       1.49531435      -0.88414137        8 
O      -0.98481058       1.78507487       1.34411610        8 
C      -2.51217690       2.09111234      -0.82983346        6 
C      -2.58733614      -1.92634493       0.45423720        6 
C       2.14591271      -1.29464574      -0.08705424        6 
C       3.28930920      -0.50619108      -0.07278893        6 
C       3.17232243       0.87891253       0.03434685        6 
C       1.91441881       1.46692658       0.13218530        6 
H      -3.17023463       1.49458962      -0.19556881        1 
H      -2.88975504      -2.02728871      -0.58949295        1 
H       4.05884766       1.50232718       0.04204161        1 
H      -2.45580867       3.10629370      -0.43486809        1 
H      -2.86975969       2.09761652      -1.85702084        1 
H      -3.33408983      -1.37617330       1.02227459        1 
H      -2.43288480      -2.91770799       0.88183866        1 
H       4.26638215      -0.96861771      -0.14826815        1 
H       1.82113457       2.54302315       0.22014262        1 
H       2.21224680      -2.37073656      -0.18945654        1 
