24
Lattice="0.0 0.0 0.0 0.0 0.0 0.0 0.0 0.0 0.0" Properties=species:S:1:pos:R:3:Z:I:1 pbc="F F F"
C       0.68004854       0.64491978       0.18915178        6 
C      -0.71431716       0.71702226       0.04919712        6 
C       1.35104091      -0.68840733       0.28513437        6 
C      -1.60972355      -0.47164075       0.27902159        6 
O       2.47035871      -0.72704359      -0.47143867        8 
O       0.97992710      -1.61251891       0.96701079        8 
O      -1.98161271      -1.03416585      -0.88848123        8 
O      -1.95556583      -0.86291101       1.36164028        8 
C      -2.82635005      -2.19934208      -0.78099718        6 
C       3.21277799      -1.96046040      -0.42355336        6 
C       1.44218005       1.81301662       0.08813076        6 
C       0.82520359       3.04522802      -0.09956106        6 
C      -0.55913684       3.11321896      -0.24599843        6 
C      -1.32330044       1.95222487      -0.17509578        6 
H      -2.31790932      -2.98075658      -0.21479245        1 
H       3.53734218      -2.17189973       0.59633833        1 
H      -1.04503933       4.06779599      -0.41207856        1 
H      -3.76415214      -1.94547403      -0.28446199        1 
H      -3.00812373      -2.51862055      -1.80464786        1 
H       4.06844661      -1.80712762      -1.07725807        1 
H       2.59841344      -2.78738705      -0.78278976        1 
H       1.42419342       3.94681436      -0.14961805        1 
H      -2.40072650       2.00234371      -0.28297034        1 
H       2.52021598       1.74480128       0.15584009        1 
