24
Lattice="0.0 0.0 0.0 0.0 0.0 0.0 0.0 0.0 0.0" Properties=species:S:1:pos:R:3:Z:I:1 pbc="F F F"
C       0.68179219      -0.76816777      -0.17511528        6 
C      -0.66741688      -0.58475549       0.16054246        6 
C       1.59717054       0.39823655      -0.42623861        6 
C      -1.25022024       0.79040106       0.16235044        6 
O       2.17280905       0.80881939       0.71087505        8 
O       1.83250373       0.85073310      -1.51979291        8 
O      -2.51475003       0.78987031      -0.30698920        8 
O      -0.69087102       1.78175438       0.56904471        8 
C      -3.18705977       2.06356626      -0.30791519        6 
C       3.00599860       1.97999669       0.60801565        6 
C       1.20109787      -2.05922104      -0.26942887        6 
C       0.38940498      -3.16424568      -0.02422573        6 
C      -0.95181279      -2.98542285       0.31038202        6 
C      -1.48216831      -1.70158720       0.37887363        6 
H      -3.25626517       2.45914398       0.70659931        1 
H       3.81479665       1.81465241      -0.10501292        1 
H      -1.58636638      -3.84337762       0.50031915        1 
H      -2.64909556       2.77464557      -0.93613575        1 
H      -4.17686666       1.86576859      -0.71286576        1 
H       3.39901553       2.14183144       1.60883648        1 
H       2.40351963       2.83177585       0.28967397        1 
H       0.80452419      -4.16309246      -0.09638244        1 
H      -2.53111524      -1.55429884       0.60148872        1 
H       2.24242362      -2.19748954      -0.53565215        1 
