24
Lattice="0.0 0.0 0.0 0.0 0.0 0.0 0.0 0.0 0.0" Properties=species:S:1:pos:R:3:Z:I:1 pbc="F F F"
C       0.72446663       0.54569688      -0.08614066        6 
C      -0.68373908       0.56561004       0.03219189        6 
C       1.49168094      -0.72394141       0.13598140        6 
C      -1.53104022      -0.64136536      -0.25636387        6 
O       2.80990678      -0.56740979      -0.12953512        8 
O       1.01879364      -1.76986979       0.50360464        8 
O      -2.67861581      -0.61864454       0.45957202        8 
O      -1.25923005      -1.50395128      -1.05039964        8 
C      -3.58725015      -1.70751223       0.21246958        6 
C       3.62415094      -1.73711319       0.06626428        6 
C       1.41740304       1.75901811      -0.12501758        6 
C       0.74318843       2.97667883      -0.05814579        6 
C      -0.63825486       2.99334734       0.09623076        6 
C      -1.34396675       1.79224502       0.13081638        6 
H      -3.91563079      -1.70254484      -0.82840169        1 
H       3.57841349      -2.06501679       1.10608124        1 
H      -1.17160523       3.93389443       0.17281815        1 
H      -3.10448583      -2.66066990       0.43189339        1 
H      -4.42866016      -1.53914261       0.88113188        1 
H       4.63485566      -1.43272681      -0.19663546        1 
H       3.28497125      -2.54825060      -0.57966392        1 
H       1.30168019       3.90442535      -0.10091090        1 
H      -2.42333029       1.79753266       0.20802367        1 
H       2.49675143       1.73844938      -0.18327771        1 
