24
Lattice="0.0 0.0 0.0 0.0 0.0 0.0 0.0 0.0 0.0" Properties=species:S:1:pos:R:3:Z:I:1 pbc="F F F"
C       0.71372372       0.62173888       0.03476599        6 
C      -0.68324798       0.67547621      -0.09784088        6 
C       1.38445223      -0.70393477       0.18360544        6 
C      -1.49633927      -0.55933147      -0.36611948        6 
O       2.67463708      -0.67134945      -0.20489838        8 
O       0.84543852      -1.69204831       0.62385118        8 
O      -2.44422723      -0.73559854       0.57120413        8 
O      -1.36139212      -1.25872741      -1.33861128        8 
C      -3.28934878      -1.89098033       0.39634514        6 
C       3.39658014      -1.91118162      -0.07387884        6 
C       1.44239823       1.80975787       0.13151543        6 
C       0.79026872       3.04004416       0.11315756        6 
C      -0.59694306       3.08998928      -0.00145573        6 
C      -1.33041012       1.90995037      -0.10504861        6 
H      -3.85580012      -1.81156105      -0.53302225        1 
H       3.42629199      -2.22669645       0.97024263        1 
H      -1.10986274       4.04482856      -0.01256330        1 
H      -2.68421253      -2.79796502       0.37543029        1 
H      -3.95653011      -1.89196974       1.25519987        1 
H       4.39815564      -1.70190439      -0.44222625        1 
H       2.92026589      -2.69001110      -0.67089768        1 
H       1.36395739       3.95570565       0.19557341        1 
H      -2.40871919       1.94362252      -0.20452952        1 
H       2.51809481       1.75868353       0.23684041        1 
