24
Lattice="0.0 0.0 0.0 0.0 0.0 0.0 0.0 0.0 0.0" Properties=species:S:1:pos:R:3:Z:I:1 pbc="F F F"
C      -0.67689316      -0.87106217       0.02140013        6 
C      -0.72883569       0.51640353      -0.19329926        6 
C       0.57658288      -1.65070778       0.29138712        6 
C       0.48362596       1.39376456      -0.33520849        6 
O       1.54316422      -1.41061520      -0.60165709        8 
O       0.68334586      -2.42726477       1.21313366        8 
O       0.51355601       2.30413829       0.66422777        8 
O       1.29791308       1.34614386      -1.21970820        8 
C       1.59365535       3.25641902       0.61514881        6 
C       2.78705505      -2.10582258      -0.39809068        6 
C      -1.87297012      -1.59034264       0.13213563        6 
C      -3.10394577      -0.96474504      -0.02173200        6 
C      -3.15498537       0.41076869      -0.23749757        6 
C      -1.97514704       1.14436941      -0.29964976        6 
H       2.55505415       2.74356271       0.66971430        1 
H       3.19700126      -1.87232632       0.58545894        1 
H      -4.10906784       0.91433219      -0.34286100        1 
H       1.54855245       3.83652833      -0.30788899        1 
H       1.45149512       3.89835067       1.48140579        1 
H       3.44494035      -1.74841219      -1.18645709        1 
H       2.63608968      -3.18362426      -0.47775898        1 
H      -4.01744210      -1.54437263       0.04376035        1 
H      -2.01350572       2.21825199      -0.43693012        1 
H      -1.82042692      -2.65050957       0.34747198        1 
