24
Lattice="0.0 0.0 0.0 0.0 0.0 0.0 0.0 0.0 0.0" Properties=species:S:1:pos:R:3:Z:I:1 pbc="F F F"
C      -0.45334660      -0.75582811       0.05408934        6 
C      -1.02287150       0.52850876       0.01718841        6 
C       1.00197269      -0.96250543       0.33854457        6 
C      -0.21297743       1.78544607       0.04824010        6 
O       1.52785037      -1.91127550      -0.46217054        8 
O       1.61702643      -0.40656827       1.21550858        8 
O       0.92122140       1.66077315      -0.66442726        8 
O      -0.56089281       2.80459528       0.59466865        8 
C       1.83297391       2.77200275      -0.60347165        6 
C       2.90625215      -2.24719913      -0.21567031        6 
C      -1.28098955      -1.87643916      -0.05685597        6 
C      -2.66073718      -1.73019089      -0.17701718        6 
C      -3.22677904      -0.45739123      -0.18911381        6 
C      -2.40866390       0.66471682      -0.09147154        6 
H       1.34218710       3.68896810      -0.93167773        1 
H       3.54069386      -1.37131666      -0.35818717        1 
H      -4.30031109      -0.33779109      -0.27876127        1 
H       2.19594110       2.89693556       0.41796166        1 
H       2.65099564       2.51166236      -1.27108936        1 
H       3.14936253      -3.01964973      -0.94169438        1 
H       3.03203596      -2.61944038       0.80225985        1 
H      -3.29052286      -2.60908686      -0.25530838        1 
H      -2.83128412       1.66178628      -0.10752677        1 
H      -0.83853127      -2.86427388      -0.03207676        1 
