24
Lattice="0.0 0.0 0.0 0.0 0.0 0.0 0.0 0.0 0.0" Properties=species:S:1:pos:R:3:Z:I:1 pbc="F F F"
C       0.70052140       0.69219994      -0.12834059        6 
C      -0.68396625       0.63858094       0.09119685        6 
C       1.47677968      -0.56732297      -0.37847427        6 
C      -1.35931690      -0.68532326       0.25255895        6 
O       2.46827575      -0.72611421       0.51358205        8 
O       1.26448997      -1.31531353      -1.30113036        8 
O      -2.57818115      -0.70052269      -0.32026963        8 
O      -0.89363259      -1.61615573       0.86609414        8 
C      -3.32452905      -1.92512220      -0.17699010        6 
C       3.25242603      -1.92769515       0.36520449        6 
C       1.34212454       1.92779125      -0.19135948        6 
C       0.60908930       3.10603048      -0.06200748        6 
C      -0.76859454       3.05410048       0.13871158        6 
C      -1.41411461       1.82248454       0.20892358        6 
H      -2.77319890      -2.75658503      -0.61764112        1 
H       2.60875293      -2.80444959       0.44573611        1 
H      -1.34018929       3.96925583       0.24046472        1 
H      -3.51278823      -2.13558623       0.87703914        1 
H      -4.25793133      -1.75712195      -0.70931925        1 
H       3.97395966      -1.90279298       1.17837613        1 
H       3.75766249      -1.93651749      -0.60176478        1 
H       1.11516769       4.06269761      -0.12009339        1 
H      -2.48399305       1.76947873       0.36594575        1 
H       2.41234290       1.96446147      -0.35476429        1 
