24
Lattice="0.0 0.0 0.0 0.0 0.0 0.0 0.0 0.0 0.0" Properties=species:S:1:pos:R:3:Z:I:1 pbc="F F F"
C       0.90456814      -0.67904524       0.12368334        6 
C       0.70148454       0.68059562      -0.14420658        6 
C      -0.19599784      -1.67641214      -0.06755955        6 
C      -0.67839620       1.21466918      -0.40692424        6 
O      -1.29940041      -1.35030309       0.63567920        8 
O      -0.13346157      -2.61544588      -0.82192725        8 
O      -1.20553595       1.75719062       0.70328743        8 
O      -1.22325247       1.20934888      -1.48356981        8 
C      -2.54521599       2.27258827       0.57781081        6 
C      -2.46702889      -2.15973453       0.39105824        6 
C       2.19724736      -1.15111448       0.36257398        6 
C       3.27249587      -0.27022710       0.38996789        6 
C       3.06675840       1.08467613       0.13262400        6 
C       1.78479562       1.55860599      -0.13272030        6 
H      -2.57863477       3.08169826      -0.15325300        1 
H      -2.75431404      -2.09680888      -0.65953944        1 
H       3.90389587       1.77292474       0.13640977        1 
H      -3.22572829       1.47809876       0.26741048        1 
H      -2.80729273       2.63709597       1.56832667        1 
H      -3.24388282      -1.74467479       1.02934393        1 
H      -2.27157061      -3.20047127       0.65223194        1 
H       4.26978661      -0.64160604       0.59431271        1 
H       1.62171806       2.61056061      -0.33567219        1 
H       2.34890372      -2.21269236       0.51780909        1 
