24
Lattice="0.0 0.0 0.0 0.0 0.0 0.0 0.0 0.0 0.0" Properties=species:S:1:pos:R:3:Z:I:1 pbc="F F F"
C       0.83645131      -0.69262051      -0.08716738        6 
C       0.75631357       0.69285589       0.14132142        6 
C      -0.33450863      -1.62291644      -0.05168304        6 
C      -0.53682331       1.44971461       0.22282905        6 
O      -1.42195736      -1.06458757       0.51384681        8 
O      -0.29645547      -2.77573927      -0.41545788        8 
O      -1.23890002       1.32841183      -0.91994521        8 
O      -0.86903796       2.14161522       1.15300761        8 
C      -2.52267911       1.97718293      -0.94164610        6 
C      -2.59289980      -1.89437629       0.60585826        6 
C       2.09162566      -1.28847327      -0.24518611        6 
C       3.25381139      -0.52968116      -0.17142486        6 
C       3.17240277       0.83759532       0.08469391        6 
C       1.92830983       1.44295011       0.24220746        6 
H      -3.17140132       1.55484429      -0.17183999        1 
H      -2.94884681      -2.15860653      -0.39144897        1 
H       4.07422733       1.43406346       0.15950089        1 
H      -2.41550490       3.04938592      -0.77124601        1 
H      -2.92778449       1.78440874      -1.93245508        1 
H      -3.33112625      -1.29266520       1.13127922        1 
H      -2.37240763      -2.80589420       1.16272119        1 
H       4.21862290      -1.00676062      -0.29774335        1 
H       1.85501358       2.50662125       0.43414421        1 
H       2.13286588      -2.35792942      -0.41003663        1 
