24
Lattice="0.0 0.0 0.0 0.0 0.0 0.0 0.0 0.0 0.0" Properties=species:S:1:pos:R:3:Z:I:1 pbc="F F F"
C       0.75338956      -0.67835685       0.14990553        6 
C       0.82891074       0.70531091      -0.09337977        6 
C      -0.52947700      -1.45379077       0.21212765        6 
C      -0.34503476       1.63098019      -0.04475920        6 
O      -1.25208139      -1.28812381      -0.91240829        8 
O      -0.83009295      -2.20864889       1.10398203        8 
O      -1.41621720       1.07084670       0.54954536        8 
O      -0.31937530       2.78164498      -0.41590028        8 
C      -2.59340696       1.88961002       0.65310023        6 
C      -2.51644371      -1.97303905      -0.95501815        6 
C       1.92687831      -1.42592947       0.25670899        6 
C       3.16961119      -0.82152094       0.08898714        6 
C       3.24652162       0.54260505      -0.18397763        6 
C       2.08277121       1.30027290      -0.26090972        6 
H      -2.37379433       2.80759150       1.19963485        1 
H      -2.37598669      -3.04894134      -0.84145353        1 
H       4.21030995       1.01899174      -0.31997635        1 
H      -2.96708990       2.14228463      -0.34071278        1 
H      -3.31772699       1.28468583       1.19403975        1 
H      -2.93797661      -1.74189869      -1.93068611        1 
H      -3.16943153      -1.61100221      -0.15853054        1 
H       4.07234952      -1.41633041       0.16707040        1 
H       2.12353384       2.36822417      -0.43459426        1 
H       1.85311948      -2.48800361       0.45759490        1 
