24
Lattice="0.0 0.0 0.0 0.0 0.0 0.0 0.0 0.0 0.0" Properties=species:S:1:pos:R:3:Z:I:1 pbc="F F F"
C       1.12850998      -0.05207219       0.06585071        6 
C       0.07923203       0.88175285       0.00669721        6 
C       0.90428040      -1.53291273       0.13798479        6 
C      -1.32945199       0.45302740       0.26368316        6 
O       0.03687449      -1.94385738      -0.80409292        8 
O       1.49324998      -2.27129446       0.88916589        8 
O      -2.22217170       1.29388590      -0.30034250        8 
O      -1.64877210      -0.50840149       0.92224214        8 
C      -3.60909383       0.98979587      -0.06251856        6 
C      -0.34987706      -3.32892385      -0.74585329        6 
C       2.44976572       0.38795032       0.00261000        6 
C       2.73644375       1.74243402      -0.14754294        6 
C       1.69836232       2.66748804      -0.23207984        6 
C       0.37659987       2.23857147      -0.14977907        6 
H      -3.85808139       0.00938365      -0.47135319        1 
H       0.52539818      -3.97683110      -0.80676361        1 
H       1.91544394       3.72267666      -0.35020103        1 
H      -3.82467559       0.99767056       1.00697406        1 
H      -4.16750416       1.77075730      -0.57376894        1 
H      -1.00350488      -3.48281274      -1.60156128        1 
H      -0.88531884      -3.52177423       0.18530055        1 
H       3.76756759       2.07216024      -0.19999278        1 
H      -0.43508832       2.95323347      -0.18561172        1 
H       3.24653857      -0.34356125       0.06150096        1 
