24
Lattice="0.0 0.0 0.0 0.0 0.0 0.0 0.0 0.0 0.0" Properties=species:S:1:pos:R:3:Z:I:1 pbc="F F F"
C       0.59209582      -0.66133279      -0.07095901        6 
C      -0.79832733      -0.68448878       0.13976537        6 
C       1.34535851       0.61555273       0.10365626        6 
C      -1.64278753       0.54943567       0.29347117        6 
O       2.67758715       0.44279898      -0.02994984        8 
O       0.84304020       1.69037717       0.33752118        8 
O      -1.67966133       1.25153458      -0.84999594        8 
O      -2.30160783       0.79984501       1.27261046        8 
C      -2.41184102       2.48978649      -0.80106296        6 
C       3.48358405       1.62188623       0.14276734        6 
C       1.26796825      -1.86836959      -0.29102839        6 
C       0.57813653      -3.07621781      -0.31749899        6 
C      -0.79566599      -3.09553926      -0.08655316        6 
C      -1.47695959      -1.90354815       0.14440451        6 
H      -3.45037874       2.31118157      -0.51903701        1 
H       3.21582422       2.37809236      -0.59652585        1 
H      -1.33755532      -4.03451786      -0.08610821        1 
H      -1.94680947       3.16428436      -0.08067640        1 
H      -2.35063259       2.90101442      -1.80612973        1 
H       4.51031338       1.29210361       0.00097170        1 
H       3.34598081       2.03298977       1.14394936        1 
H       1.11445838      -4.00032829      -0.49943390        1 
H      -2.54569385      -1.91048877       0.32282506        1 
H       2.34024000      -1.85083370      -0.42876374        1 
