24
Lattice="0.0 0.0 0.0 0.0 0.0 0.0 0.0 0.0 0.0" Properties=species:S:1:pos:R:3:Z:I:1 pbc="F F F"
C      -0.61135472      -0.69145817      -0.10472598        6 
C      -0.95151963       0.65889388       0.06794405        6 
C       0.79369110      -1.14363474      -0.38514880        6 
C       0.05397820       1.76091604       0.02165886        6 
O       1.31521328      -1.78778603       0.67334064        8 
O       1.34874942      -1.02467972      -1.44914095        8 
O       1.26606952       1.35133264       0.44432666        8 
O      -0.18231690       2.88583871      -0.34978994        8 
C       2.33917880       2.30096859       0.31785232        6 
C       2.64914905      -2.30211868       0.50032716        6 
C      -1.61336820      -1.66340427      -0.07348461        6 
C      -2.94504793      -1.30087281       0.10945448        6 
C      -3.28700460       0.04177338       0.26420122        6 
C      -2.29429261       1.01447249       0.23473484        6 
H       2.46816994       2.58546942      -0.72727624        1 
H       2.68065209      -3.01659812      -0.32370791        1 
H      -4.32269768       0.32859923       0.40391354        1 
H       2.13305492       3.19047151       0.91461530        1 
H       3.22382021       1.78709671       0.68693044        1 
H       2.89546413      -2.78827171       1.44143633        1 
H       3.34374700      -1.48610078       0.29522615        1 
H      -3.71310500      -2.06590569       0.12809702        1 
H      -2.54132261       2.06340814       0.34204704        1 
H      -1.34853932      -2.70626212      -0.20303605        1 
