24
Lattice="0.0 0.0 0.0 0.0 0.0 0.0 0.0 0.0 0.0" Properties=species:S:1:pos:R:3:Z:I:1 pbc="F F F"
C       0.81865416      -0.67938579       0.08549878        6 
C       0.86013269       0.71887766      -0.01554531        6 
C      -0.47369229      -1.42775146       0.22853325        6 
C      -0.38498935       1.53902688      -0.13421598        6 
O      -1.24402551      -1.28188567      -0.86825943        8 
O      -0.79074083      -2.06882096       1.19838850        8 
O      -1.30009496       1.18078877       0.78849518        8 
O      -0.56562340       2.39295877      -0.96750967        8 
C      -2.58731599       1.81812048       0.69078456        6 
C      -2.54956696      -1.88814865      -0.80945173        6 
C       2.00941334      -1.40509863       0.13709019        6 
C       3.23481467      -0.75148941       0.05110298        6 
C       3.27663510       0.63634543      -0.07642104        6 
C       2.09312434       1.36600051      -0.11936677        6 
H      -2.49197136       2.89557986       0.83149388        1 
H      -2.46504837      -2.96727410      -0.67429882        1 
H       4.22899852       1.14864943      -0.14556353        1 
H      -3.03297834       1.62110183      -0.28570159        1 
H      -3.18622408       1.37930582       1.48559164        1 
H      -3.01838528      -1.65646836      -1.76306162        1 
H      -3.12444628      -1.46663698       0.01695706        1 
H       4.15392081      -1.32487326       0.08367304        1 
H       2.11118764       2.44303474      -0.23336602        1 
H       1.96748041      -2.48297555       0.24066112        1 
