24
Lattice="0.0 0.0 0.0 0.0 0.0 0.0 0.0 0.0 0.0" Properties=species:S:1:pos:R:3:Z:I:1 pbc="F F F"
C      -0.52921330      -0.71651422      -0.06905638        6 
C      -0.97604950       0.61524099      -0.02124271        6 
C       0.89354387      -1.09121686      -0.36721781        6 
C      -0.06574732       1.79988997       0.00672731        6 
O       1.40864908      -1.86221127       0.60943126        8 
O       1.47376547      -0.81279863      -1.38651964        8 
O       1.18376898       1.47156519       0.38034387        8 
O      -0.42037287       2.93449984      -0.21509944        8 
C       2.14975947       2.53717101       0.38327392        6 
C       2.74597852      -2.34855175       0.38470996        6 
C      -1.45766288      -1.75588084       0.02848314        6 
C      -2.81906103      -1.48528683       0.14244487        6 
C      -3.26574844      -0.16600457       0.16395374        6 
C      -2.34621366       0.87461028       0.08884519        6 
H       2.21284636       2.99225133      -0.60576200        1 
H       2.77843233      -2.97459889      -0.50845443        1 
H      -4.32394452       0.05171510       0.25010249        1 
H       1.87419403       3.29683391       1.11623071        1 
H       3.09409140       2.06878551       0.65085395        1 
H       2.99501419      -2.92825789       1.27054020        1 
H       3.43708737      -1.51354162       0.26305946        1 
H      -3.52674986      -2.30384749       0.20998251        1 
H      -2.67112363       1.90692975       0.12487122        1 
H      -1.10924352      -2.78132467      -0.00064070        1 
