24
Lattice="0.0 0.0 0.0 0.0 0.0 0.0 0.0 0.0 0.0" Properties=species:S:1:pos:R:3:Z:I:1 pbc="F F F"
C       0.88918764      -0.67437756      -0.07951286        6 
C       0.68884828       0.69997395       0.13262776        6 
C      -0.19778707      -1.70063624      -0.04793257        6 
C      -0.66438893       1.32425247       0.33676165        6 
O      -1.42806137      -1.15938528       0.02393033        8 
O      -0.00143631      -2.89425372      -0.05798280        8 
O      -1.25376488       1.59330227      -0.84122106        8 
O      -1.12249812       1.62227630       1.41123239        8 
C      -2.57240182       2.16638878      -0.76847894        6 
C      -2.52781735      -2.08076024       0.13392792        6 
C       2.19147112      -1.15796146      -0.25332987        6 
C       3.27989742      -0.29617540      -0.23186503        6 
C       3.07802409       1.06558715      -0.01277326        6 
C       1.78908250       1.55765749       0.17124282        6 
H      -3.25059054       1.48229022      -0.25563749        1 
H      -2.57873049      -2.71956091      -0.74877405        1 
H       3.92174773       1.74533014       0.01704104        1 
H      -2.54927282       3.11786888      -0.23567892        1 
H      -2.88219568       2.31061934      -1.80105142        1 
H      -3.41730693      -1.45958878       0.21102186        1 
H      -2.41474942      -2.70092795       1.02394047        1 
H       4.28105425      -0.68551300      -0.37405973        1 
H       1.63014546       2.61481732       0.34886666        1 
H       2.32441090      -2.22284980      -0.39687267        1 
