24
Lattice="0.0 0.0 0.0 0.0 0.0 0.0 0.0 0.0 0.0" Properties=species:S:1:pos:R:3:Z:I:1 pbc="F F F"
C       0.69801278       0.63704635       0.11828997        6 
C      -0.67703383       0.70779631      -0.14511901        6 
C       1.34559037      -0.70306116       0.24055528        6 
C      -1.48042785      -0.53698849      -0.39668112        6 
O       2.57732078      -0.72266251      -0.30226508        8 
O       0.84264940      -1.65047572       0.79810661        8 
O      -2.37075125      -0.75210840       0.58450361        8 
O      -1.38212330      -1.21410651      -1.39021820        8 
C      -3.18677870      -1.93282727       0.44331224        6 
C       3.28145085      -1.97668296      -0.20783941        6 
C       1.43584932       1.81331271       0.26660253        6 
C       0.80286563       3.05094498       0.19121437        6 
C      -0.56728756       3.11853759      -0.05507682        6 
C      -1.30567293       1.94922869      -0.22061455        6 
H      -3.77217665      -1.88507694      -0.47613795        1 
H       3.43649299      -2.24904924       0.83726349        1 
H      -1.06287366       4.08042829      -0.11887645        1 
H      -2.55556075      -2.82210598       0.42706728        1 
H      -3.83688238      -1.93881581       1.31507740        1 
H       4.23230199      -1.81147861      -0.70900942        1 
H       2.71480626      -2.76493350      -0.70505570        1 
H       1.37825502       3.96001716       0.32101939        1 
H      -2.37026274       1.99796055      -0.41689502        1 
H       2.50048089       1.74894752       0.45157023        1 
