24
Lattice="0.0 0.0 0.0 0.0 0.0 0.0 0.0 0.0 0.0" Properties=species:S:1:pos:R:3:Z:I:1 pbc="F F F"
C       0.69315899      -0.72925415       0.15303730        6 
C      -0.68291057      -0.60987569      -0.09043158        6 
C       1.55231761       0.47667622       0.41378849        6 
C      -1.30441179       0.74455603      -0.14689875        6 
O       2.28373517       0.79111476      -0.66548262        8 
O       1.62086611       1.03832111       1.47854031        8 
O      -2.60335625       0.71867800       0.21311302        8 
O      -0.73116867       1.74683438      -0.50598194        8 
C      -3.29996244       1.97734838       0.15333583        6 
C       3.10523080       1.96941670      -0.54336232        6 
C       1.27809305      -1.99450204       0.19716663        6 
C       0.50230702      -3.13643505       0.00963409        6 
C      -0.86688583      -3.02105939      -0.22373125        6 
C      -1.45788805      -1.76248899      -0.26153011        6 
H      -2.82718637       2.70350658       0.81570106        1 
H       2.47950142       2.83520020      -0.32393006        1 
H      -1.47271286      -3.90781876      -0.37019534        1 
H      -3.30038560       2.36527995      -0.86651268        1 
H      -4.31376113       1.76079132       0.48255654        1 
H       3.59306059       2.08105181      -1.50886543        1 
H       3.84269080       1.84023373       0.25020249        1 
H       0.96786023      -4.11477959       0.04675439        1 
H      -2.52181901      -1.66110690      -0.43135276        1 
H       2.34128810      -2.08536232       0.38581110        1 
