24
Lattice="0.0 0.0 0.0 0.0 0.0 0.0 0.0 0.0 0.0" Properties=species:S:1:pos:R:3:Z:I:1 pbc="F F F"
C       0.74377538      -0.67711195      -0.18719786        6 
C       0.73992089       0.68580177       0.18766098        6 
C      -0.43217257      -1.60767526      -0.08893423        6 
C      -0.44670118       1.60229975       0.10287061        6 
O      -1.42637663      -1.11610343       0.67101575        8 
O      -0.42243098      -2.74660081      -0.49904638        8 
O      -1.39166622       1.14343800      -0.73666637        8 
O      -0.47947586       2.70954399       0.59022614        8 
C      -2.53787533       1.98990286      -0.92366609        6 
C      -2.55334418      -1.98470138       0.87711413        6 
C       1.96706955      -1.32137225      -0.39165003        6 
C       3.17368685      -0.65085615      -0.21622404        6 
C       3.16961936       0.67457117       0.20751432        6 
C       1.95907786       1.33742996       0.39009896        6 
H      -3.05429418       2.14652693       0.02504110        1 
H      -3.02679916      -2.22661029      -0.07598724        1 
H       4.10263056       1.20066795       0.37302398        1 
H      -2.23933585       2.95626195      -1.33267022        1 
H      -3.17737475       1.45740330      -1.62422581        1 
H      -3.23556960      -1.42440627       1.51265943        1 
H      -2.24151472      -2.90842239       1.36656106        1 
H       4.10921780      -1.17171249      -0.38443644        1 
H       1.93605563       2.38604148       0.65827186        1 
H       1.94903942      -2.37185559      -0.65316975        1 
