24
Lattice="0.0 0.0 0.0 0.0 0.0 0.0 0.0 0.0 0.0" Properties=species:S:1:pos:R:3:Z:I:1 pbc="F F F"
C       0.85924110       0.61799669       0.19743702        6 
C      -0.51497872       0.62144729      -0.14487612        6 
C       1.75869063      -0.58894199       0.21205411        6 
C      -1.39393002      -0.57373581       0.11209108        6 
O       1.38821572      -1.49968740      -0.69538959        8 
O       2.80196523      -0.63860026       0.82438136        8 
O      -2.70637236      -0.24566222       0.00508863        8 
O      -1.03501572      -1.69587606       0.36838358        8 
C      -3.63868770      -1.31912628       0.21700763        6 
C       2.17980631      -2.69698600      -0.76332670        6 
C       1.54501127       1.83171548       0.28364796        6 
C       0.91210451       3.04020446       0.00715706        6 
C      -0.42325350       3.04366726      -0.38165264        6 
C      -1.13242662       1.84713317      -0.42457308        6 
H      -3.46481906      -2.12440847      -0.49832802        1 
H       3.22067350      -2.46015264      -0.98886554        1 
H      -0.92446322       3.97493299      -0.61879794        1 
H      -3.54389623      -1.71375695       1.22987232        1 
H      -4.62253197      -0.87908103       0.06848636        1 
H       1.73531419      -3.28893106      -1.56001494        1 
H       2.12582195      -3.23514388       0.18445135        1 
H       1.46703184       3.96849508       0.07806963        1 
H      -2.18947505       1.85661919      -0.64859427        1 
H       2.59589039       1.80342472       0.54238184        1 
