24
Lattice="0.0 0.0 0.0 0.0 0.0 0.0 0.0 0.0 0.0" Properties=species:S:1:pos:R:3:Z:I:1 pbc="F F F"
C       0.89061253       0.57997817       0.19271499        6 
C      -0.48482913       0.65292238      -0.13351787        6 
C       1.71943852      -0.67567384       0.19984553        6 
C      -1.41466148      -0.49649209       0.14250902        6 
O       1.28497976      -1.56642801      -0.70096008        8 
O       2.76571726      -0.78451105       0.79866965        8 
O      -2.70884966      -0.14050645      -0.05163471        8 
O      -1.09973832      -1.60989203       0.48242676        8 
C      -3.68337224      -1.17063672       0.18434536        6 
C       2.00570458      -2.80726842      -0.77393904        6 
C       1.64055037       1.75537739       0.26573683        6 
C       1.06653075       2.99457470      -0.00494048        6 
C      -0.27215920       3.06593512      -0.37545913        6 
C      -1.04293730       1.90733745      -0.40855826        6 
H      -3.51405463      -2.01775826      -0.48227771        1 
H       3.05772923      -2.63038934      -1.00229284        1 
H      -0.72785377       4.02163221      -0.60719786        1 
H      -3.63447566      -1.51403681       1.21884365        1 
H      -4.64649162      -0.70805959      -0.02076523        1 
H       1.52578726      -3.37105799      -1.57058644        1 
H       1.92376539      -3.34374371       0.17290100        1 
H       1.66877174       3.89352994       0.05652586        1 
H      -2.10097529       1.97040863      -0.61979560        1 
H       2.69215424       1.67245509       0.50951593        1 
