24
Lattice="0.0 0.0 0.0 0.0 0.0 0.0 0.0 0.0 0.0" Properties=species:S:1:pos:R:3:Z:I:1 pbc="F F F"
C       0.67498559       0.60465491       0.03748611        6 
C      -0.72663585       0.52985777       0.17245522        6 
C       1.60448735      -0.55375301       0.27380953        6 
C      -1.45294228      -0.78385434       0.12334125        6 
O       2.48842534      -0.67325724      -0.74371224        8 
O       1.60042848      -1.26098365       1.24499747        8 
O      -2.71094434      -0.61620883      -0.35862559        8 
O      -1.02760362      -1.85807156       0.46339406        8 
C      -3.51738255      -1.80574696      -0.42381136        6 
C       3.45707789      -1.73100133      -0.60332827        6 
C       1.27857499       1.85327116      -0.14029471        6 
C       0.52338883       3.02219059      -0.14132672        6 
C      -0.85667962       2.95325880       0.02562334        6 
C      -1.47434378       1.71369662       0.14833789        6 
H      -3.06043272      -2.54057322      -1.08844794        1 
H       4.06704766      -1.57452154       0.28791902        1 
H      -1.45471285       3.85698890       0.03379294        1 
H      -3.63365044      -2.24481839       0.56822818        1 
H      -4.47864577      -1.48060774      -0.81611614        1 
H       4.06829916      -1.68396619      -1.50176475        1 
H       2.95382304      -2.69599800      -0.52813996        1 
H       1.01401054       3.98056758      -0.26642142        1 
H      -2.55157949       1.64932730       0.21362636        1 
H       2.35365707       1.90160236      -0.25993112        1 
