24
Lattice="0.0 0.0 0.0 0.0 0.0 0.0 0.0 0.0 0.0" Properties=species:S:1:pos:R:3:Z:I:1 pbc="F F F"
C       0.81934999      -0.67109471      -0.19401392        6 
C       0.70766274       0.68729134       0.16126547        6 
C      -0.27853727      -1.68376201      -0.04039709        6 
C      -0.58202873       1.44661146       0.29380534        6 
O      -1.51494458      -1.15725471      -0.04075379        8 
O      -0.06609106      -2.85769357       0.16327735        8 
O      -1.28191432       1.42284802      -0.85223793        8 
O      -0.87906113       2.11999369       1.25178461        8 
C      -2.53546531       2.12718720      -0.83986672        6 
C      -2.59350615      -2.07175979       0.22942119        6 
C       2.09075680      -1.20411006      -0.43865774        6 
C       3.22907370      -0.41128181      -0.36702791        6 
C       3.11715633       0.92278597       0.01875887        6 
C       1.86308504       1.46273554       0.28621497        6 
H      -3.20759563       1.68871087      -0.09971823        1 
H      -2.63165994      -2.85161398      -0.53229425        1 
H       4.00139453       1.54267774       0.11090530        1 
H      -2.38294214       3.18155736      -0.60476557        1 
H      -2.94207842       2.01086491      -1.84189389        1 
H      -3.49638979      -1.46566356       0.20283146        1 
H      -2.46664002      -2.53183158       1.21035722        1 
H       4.20079073      -0.84108282      -0.58009662        1 
H       1.76300987       2.50036114       0.58037260        1 
H       2.16785815      -2.26195523      -0.65586042        1 
