24
Lattice="0.0 0.0 0.0 0.0 0.0 0.0 0.0 0.0 0.0" Properties=species:S:1:pos:R:3:Z:I:1 pbc="F F F"
C      -0.67091528      -0.67688378      -0.13321385        6 
C      -0.87916298       0.68631717       0.13440297        6 
C       0.68050473      -1.30578947      -0.33197413        6 
C       0.19451860       1.72284738       0.05731038        6 
O       1.26771602      -1.56389095       0.84874049        8 
O       1.12515793      -1.64374110      -1.40085062        8 
O       1.43171611       1.19354338       0.07502671        8 
O      -0.01798618       2.90733465      -0.06250859        8 
C       2.52112864       2.11212918      -0.12223446        6 
C       2.56076913      -2.19215074       0.78211729        6 
C      -1.76669093      -1.54097698      -0.19864634        6 
C      -3.05771702      -1.06983153       0.02021041        6 
C      -3.26707060       0.27976341       0.29953870        6 
C      -2.18548816       1.15068243       0.33625652        6 
H       2.41728808       2.62089020      -1.08148209        1 
H       2.49770275      -3.14420098       0.25322067        1 
H      -4.26986381       0.65352627       0.47022924        1 
H       2.54518998       2.85165458       0.67920641        1 
H       3.41997941       1.50011419      -0.10802713        1 
H       2.86202257      -2.34431663       1.81593201        1 
H       3.26927234      -1.54135280       0.26674140        1 
H      -3.89610824      -1.75543306      -0.02908638        1 
H      -2.33101960       2.20977442       0.50780563        1 
H      -1.60182256      -2.58909162      -0.42011235        1 
