24
Lattice="0.0 0.0 0.0 0.0 0.0 0.0 0.0 0.0 0.0" Properties=species:S:1:pos:R:3:Z:I:1 pbc="F F F"
C      -0.78505080      -0.74810238      -0.06297100        6 
C      -0.73009465       0.62648798       0.20182452        6 
C       0.43983488      -1.56796896      -0.34096702        6 
C       0.57395650       1.35327242       0.37540506        6 
O       1.25861249      -1.62253180       0.71976349        8 
O       0.66173684      -2.10639294      -1.39934012        8 
O       0.90083824       2.01195405      -0.75456246        8 
O       1.23742801       1.36591188       1.38011387        8 
C       2.13356530       2.75898866      -0.71775737        6 
C       2.48729772      -2.35331020       0.54122472        6 
C      -2.02718526      -1.37158852      -0.21245646        6 
C      -3.20556542      -0.65073495      -0.05398324        6 
C      -3.15055310       0.71561004       0.21503513        6 
C      -1.91765890       1.35143925       0.32811877        6 
H       2.08818819       3.53138345       0.05153153        1 
H       2.27699436      -3.40283255       0.32953981        1 
H      -4.06439536       1.28755249       0.32724938        1 
H       2.97316834       2.09389412      -0.51090789        1 
H       2.22966445       3.20365079      -1.70539891        1 
H       3.02102752      -2.24868587       1.48260625        1 
H       3.06566038      -1.92923140      -0.28069621        1 
H      -4.16199386      -1.15094863      -0.15325819        1 
H      -1.87234567       2.41744470       0.51831472        1 
H      -2.06100009      -2.42646063      -0.45818649        1 
