24
Lattice="0.0 0.0 0.0 0.0 0.0 0.0 0.0 0.0 0.0" Properties=species:S:1:pos:R:3:Z:I:1 pbc="F F F"
C       0.67544176       0.61038858      -0.11792819        6 
C      -0.68845496       0.76284943       0.17423527        6 
C       1.27286098      -0.75720572      -0.11082857        6 
C      -1.58959847      -0.41791956       0.41942351        6 
O       2.58320240      -0.73723297       0.20571501        8 
O       0.67253462      -1.77160572      -0.38246584        8 
O      -2.14001923      -0.84802279      -0.72471041        8 
O      -1.84647375      -0.85686807       1.51320655        8 
C      -2.95506419      -2.03216541      -0.62560633        6 
C       3.24294540      -2.01766061       0.21782550        6 
C       1.46565764       1.74479899      -0.33044216        6 
C       0.89801449       3.01402966      -0.29345223        6 
C      -0.45756969       3.16122950      -0.00378546        6 
C      -1.24636906       2.03858451       0.23306553        6 
H      -2.34908765      -2.86672484      -0.27043631        1 
H       2.77368309      -2.67773439       0.94854009        1 
H      -0.90224740       4.14891249       0.03836782        1 
H      -3.79140026      -1.86876360       0.05559735        1 
H      -3.31175726      -2.22087952      -1.63553602        1 
H       4.27325116      -1.80790232       0.49566432        1 
H       3.19529335      -2.48132490      -0.76865306        1 
H       1.51365846       3.88648739      -0.47799746        1 
H      -2.29958430       2.14938116       0.46346668        1 
H       2.52219217       1.62032571      -0.52773193        1 
