24
Lattice="0.0 0.0 0.0 0.0 0.0 0.0 0.0 0.0 0.0" Properties=species:S:1:pos:R:3:Z:I:1 pbc="F F F"
C       0.54130894      -0.89855837       0.15443986        6 
C      -0.73540969      -0.46117593      -0.22739805        6 
C       1.67406549       0.05135220       0.42225088        6 
C      -1.08240869       0.99734357      -0.27009582        6 
O       2.14029460       0.58012690      -0.71530970        8 
O       2.13613268       0.26356134       1.51800202        8 
O      -2.14833466       1.24505899       0.52141154        8 
O      -0.54246808       1.83927024      -0.94412266        8 
C      -2.62631583       2.60400734       0.53003094        6 
C       3.18498497       1.56244062      -0.58339461        6 
C       0.78626626      -2.26501143       0.30496109        6 
C      -0.21569078      -3.19555189       0.04477493        6 
C      -1.48283914      -2.76347221      -0.34253095        6 
C      -1.74683150      -1.40195907      -0.44809335        6 
H      -1.84226855       3.27992191       0.87373904        1 
H       2.82169518       2.41801521      -0.01256220        1 
H      -2.26880391      -3.48296568      -0.54092931        1 
H      -2.94600796       2.90218875      -0.46986357        1 
H      -3.46668177       2.60857951       1.22034849        1 
H       3.42836399       1.85914152      -1.60063108        1 
H       4.05484633       1.13289746      -0.08445479        1 
H      -0.00929107      -4.25426869       0.15181941        1 
H      -2.74295139      -1.05856501      -0.69881634        1 
H       1.76777408      -2.59482868       0.62457855        1 
