24
Lattice="0.0 0.0 0.0 0.0 0.0 0.0 0.0 0.0 0.0" Properties=species:S:1:pos:R:3:Z:I:1 pbc="F F F"
C       0.70769018       0.64059990       0.08371971        6 
C      -0.68538930       0.65225122      -0.08787440        6 
C       1.42043652      -0.65912335       0.28149052        6 
C      -1.43949276      -0.62172291      -0.32290875        6 
O       2.61206533      -0.68184031      -0.34508606        8 
O       0.99794367      -1.56653736       0.95694747        8 
O      -2.53417504      -0.70100925       0.45628618        8 
O      -1.14005923      -1.44329950      -1.15414265        8 
C      -3.34603417      -1.87826996       0.27760183        6 
C       3.37171254      -1.89710549      -0.19499417        6 
C       1.40329459       1.84781073       0.15966700        6 
C       0.71850699       3.05932868       0.09269780        6 
C      -0.66626962       3.06961128      -0.05682650        6 
C      -1.36591808       1.86809865      -0.14400914        6 
H      -3.71234989      -1.93736980      -0.74846730        1 
H       3.61765753      -2.06633340       0.85447266        1 
H      -1.20297508       4.00986373      -0.10770648        1 
H      -2.76602641      -2.77305519       0.50686065        1 
H      -4.17243912      -1.76683249       0.97597840        1 
H       4.27414078      -1.74745700      -0.78330455        1 
H       2.80101275      -2.74616613      -0.57302833        1 
H       1.26635015       3.99187718       0.16077017        1 
H      -2.44166011       1.86743684      -0.26962828        1 
H       2.47815433       1.83047087       0.28736661        1 
