24
Lattice="0.0 0.0 0.0 0.0 0.0 0.0 0.0 0.0 0.0" Properties=species:S:1:pos:R:3:Z:I:1 pbc="F F F"
C       0.69256436       0.65962071      -0.04439097        6 
C      -0.71309681       0.58681117      -0.08526928        6 
C       1.56356731      -0.52982066      -0.33938769        6 
C      -1.39525907      -0.73689558       0.05729568        6 
O       2.46085892      -0.74097816       0.64232084        8 
O       1.49980323      -1.17673192      -1.35258774        8 
O      -2.74129503      -0.62254537      -0.00143931        8 
O      -0.83416399      -1.79548448       0.20742194        8 
C      -3.48143211      -1.84832263       0.14042136        6 
C       3.34100886      -1.86621758       0.44617368        6 
C       1.31395569       1.90410623       0.05699322        6 
C       0.55851845       3.07469799       0.09300885        6 
C      -0.83016200       3.00776394       0.02399918        6 
C      -1.46013283       1.76873446      -0.04416012        6 
H      -3.22033053      -2.54528882      -0.65719739        1 
H       2.75883268      -2.78359788       0.35019119        1 
H      -1.42379338       3.91414971       0.04583323        1 
H      -3.27119277      -2.31197653       1.10546200        1 
H      -4.52868633      -1.56190162       0.07258543        1 
H       3.96942197      -1.89891004       1.33324222        1 
H       3.94568249      -1.72639865      -0.45129315        1 
H       1.05647780       4.03465280       0.16657505        1 
H      -2.53952294       1.70391242      -0.04756193        1 
H       2.39559025       1.95249412       0.08847511        1 
