24
Lattice="0.0 0.0 0.0 0.0 0.0 0.0 0.0 0.0 0.0" Properties=species:S:1:pos:R:3:Z:I:1 pbc="F F F"
C       0.77722533       0.71699878       0.18572351        6 
C      -0.58400732       0.58153627      -0.16078276        6 
C       1.75481904      -0.41912453       0.30064730        6 
C      -1.30718830      -0.72189919       0.02853199        6 
O       1.69804100      -1.22174366      -0.76948069        8 
O       2.59643349      -0.49829578       1.16544865        8 
O      -2.64137717      -0.52051975       0.15434897        8 
O      -0.81703606      -1.82423148       0.05729647        8 
C      -3.44115685      -1.70532905       0.31705103        6 
C       2.54509549      -2.38320769      -0.74248414        6 
C       1.34021617       1.99126019       0.27671767        6 
C       0.58913882       3.12670863      -0.01359344        6 
C      -0.74251202       2.99568658      -0.39721876        6 
C      -1.32888648       1.73505037      -0.43648731        6 
H      -3.33376726      -2.36039346      -0.54892261        1 
H       3.59028915      -2.09742842      -0.61693927        1 
H      -1.33365303       3.87253723      -0.63456462        1 
H      -3.14252387      -2.24722484       1.21555254        1 
H      -4.46562253      -1.35041444       0.40620897        1 
H       2.38962965      -2.87435166      -1.70023280        1 
H       2.24365567      -3.04088060       0.07437807        1 
H       1.04707910       4.10686084       0.05274995        1 
H      -2.38135222       1.63458825      -0.66186039        1 
H       2.38245640       2.07698760       0.55830244        1 
