24
Lattice="0.0 0.0 0.0 0.0 0.0 0.0 0.0 0.0 0.0" Properties=species:S:1:pos:R:3:Z:I:1 pbc="F F F"
C       0.14255914      -0.78376708       0.09817602        6 
C      -1.06638442      -0.08434331      -0.16337461        6 
C       1.51020298      -0.23467942      -0.20960906        6 
C      -1.29312811       1.40465987      -0.02946171        6 
O       2.48213941      -1.01145255       0.33490707        8 
O       1.75827059       0.75367290      -0.85009624        8 
O      -0.19265312       2.10491644       0.24859559        8 
O      -2.40255638       1.89457184      -0.01484454        8 
C      -0.37612626       3.50929952       0.49237532        6 
C       3.83213121      -0.60471145       0.05707840        6 
C       0.07559887      -2.16681997       0.32424800        6 
C      -1.12739033      -2.86493827       0.27324151        6 
C      -2.29858318      -2.18886623      -0.04527304        6 
C      -2.26082495      -0.81092353      -0.23025695        6 
H      -0.82008971       3.99177815      -0.37944537        1 
H       4.01714917      -0.59803496      -1.01827173        1 
H      -3.24144749      -2.71893020      -0.11660927        1 
H      -1.02224048       3.66585273       1.35786402        1 
H       0.62270238       3.89726033       0.67793480        1 
H       4.46288898      -1.34096019       0.55072023        1 
H       4.02034198       0.39246880       0.45810587        1 
H      -1.13826140      -3.93373147       0.45429237        1 
H      -3.17589320      -0.25503077      -0.38774641        1 
H       0.99619164      -2.70315687       0.50456681        1 
