24
Lattice="0.0 0.0 0.0 0.0 0.0 0.0 0.0 0.0 0.0" Properties=species:S:1:pos:R:3:Z:I:1 pbc="F F F"
C       0.71173507      -0.77632249      -0.12454253        6 
C      -0.63817129      -0.53237646       0.19740234        6 
C       1.77611059       0.26471593      -0.33166329        6 
C      -1.26178117       0.83602429       0.17261919        6 
O       1.83367610       1.13819675       0.67568039        8 
O       2.56290607       0.23343134      -1.25110957        8 
O      -2.48007614       0.77024092      -0.42100163        8 
O      -0.80944139       1.85997475       0.61725353        8 
C      -3.21873053       2.00419688      -0.47273251        6 
C       2.82457424       2.17551592       0.56845735        6 
C       1.15767947      -2.09778757      -0.24222532        6 
C       0.30835458      -3.16972491       0.00813479        6 
C      -1.01900635      -2.93081951       0.35435631        6 
C      -1.49011297      -1.62449431       0.41467629        6 
H      -3.40866654       2.37910107       0.53430655        1 
H       3.82672180       1.74440726       0.53996986        1 
H      -1.69289814      -3.75667513       0.55146810        1 
H      -2.66483661       2.75660444      -1.03602463        1 
H      -4.15212443       1.75990080      -0.97510274        1 
H       2.69050105       2.78978634       1.45529881        1 
H       2.65833731       2.76438107      -0.33470816        1 
H       0.68116410      -4.18449547      -0.07061764        1 
H      -2.53527844      -1.43875575       0.62355661        1 
H       2.18803334      -2.27067099      -0.52683937        1 
