24
Lattice="0.0 0.0 0.0 0.0 0.0 0.0 0.0 0.0 0.0" Properties=species:S:1:pos:R:3:Z:I:1 pbc="F F F"
C       0.39350487      -0.75982501       0.07880895        6 
C      -0.96803799      -0.46648548      -0.14228676        6 
C       1.44393781       0.27117952      -0.18976390        6 
C      -1.54564313       0.91794212      -0.19407677        6 
O       2.67500813      -0.15809142       0.16744039        8 
O       1.24482874       1.35774730      -0.67809828        8 
O      -1.05735115       1.69266356       0.78748512        8 
O      -2.45256507       1.24194185      -0.92403218        8 
C      -1.52226920       3.05292010       0.80478723        6 
C       3.75677758       0.75135179      -0.09937404        6 
C       0.77158679      -2.08784952       0.31019049        6 
C      -0.17398244      -3.10992967       0.32788422        6 
C      -1.51103861      -2.82085012       0.07148499        6 
C      -1.90176529      -1.50380705      -0.15901575        6 
H      -1.18911520       3.56893870      -0.09715246        1 
H       3.80015408       0.99085313      -1.16284425        1 
H      -2.25091330      -3.61323826       0.05860232        1 
H      -2.61092515       3.08640352       0.86424392        1 
H      -1.07264214       3.50081282       1.68804447        1 
H       4.65745395       0.22846025       0.21455778        1 
H       3.62925696       1.67285147       0.47086020        1 
H       0.13843452      -4.13039449       0.51736664        1 
H      -2.94233865      -1.26118916      -0.33628721        1 
H       1.81920201      -2.31520906       0.45092071        1 
