24
Lattice="0.0 0.0 0.0 0.0 0.0 0.0 0.0 0.0 0.0" Properties=species:S:1:pos:R:3:Z:I:1 pbc="F F F"
C       0.78667960      -0.67170765      -0.19518916        6 
C       0.71694995       0.68504631       0.18852970        6 
C      -0.32807026      -1.67006393      -0.03911810        6 
C      -0.53060324       1.52017410       0.24026225        6 
O      -1.54197551      -1.12299881       0.13534245        8 
O      -0.13231079      -2.86199640       0.04684193        8 
O      -1.29160894       1.33876514      -0.85143432        8 
O      -0.73720813       2.37913854       1.06579853        8 
C      -2.50494206       2.10691584      -0.91123401        6 
C      -2.61552223      -2.04015709       0.41453811        6 
C       2.04282273      -1.23868498      -0.44003692        6 
C       3.20819817      -0.48957325      -0.33141365        6 
C       3.13856440       0.83409376       0.09516338        6 
C       1.89926552       1.41207593       0.35257468        6 
H      -3.16203430       1.83932039      -0.08145049        1 
H      -2.74759473      -2.73529346      -0.41560638        1 
H       4.04255187       1.41909516       0.21890654        1 
H      -2.28895562       3.17538802      -0.86715510        1 
H      -2.96489634       1.84591748      -1.86164952        1 
H      -3.49910535      -1.41764763       0.53780969        1 
H      -2.41024886      -2.60337039       1.32598840        1 
H       4.16656442      -0.94847001      -0.54457618        1 
H       1.82695987       2.44748737       0.66120354        1 
H       2.08617676      -2.29355071      -0.67930126        1 
