24
Lattice="0.0 0.0 0.0 0.0 0.0 0.0 0.0 0.0 0.0" Properties=species:S:1:pos:R:3:Z:I:1 pbc="F F F"
C       0.85140129      -0.69381871      -0.09841691        6 
C       0.74516023       0.68592112       0.12086222        6 
C      -0.29568494      -1.62553851       0.15974771        6 
C      -0.57690278       1.34824286       0.39072381        6 
O      -1.36356183      -1.35677794      -0.61475285        8 
O      -0.28081923      -2.48300952       1.00859817        8 
O      -1.22819744       1.61482117      -0.75288607        8 
O      -0.97693996       1.65675746       1.48670962        8 
C      -2.52627192       2.22387716      -0.61545364        6 
C      -2.54423764      -2.14360695      -0.35873976        6 
C       2.10616240      -1.25761557      -0.34352899        6 
C       3.23673974      -0.45305403      -0.42769385        6 
C       3.12852510       0.91982685      -0.21111959        6 
C       1.88786377       1.48491380       0.06908530        6 
H      -3.19748181       1.55987223      -0.06784727        1 
H      -2.33762031      -3.20327997      -0.51411003        1 
H       4.00905477       1.54998249      -0.25469963        1 
H      -2.45086021       3.17487194      -0.08655377        1 
H      -2.88229620       2.37455321      -1.63187040        1 
H      -3.28569769      -1.78910224      -1.07121141        1 
H      -2.88648948      -1.99023829       0.66585139        1 
H       4.20154477      -0.89864459      -0.63965014        1 
H       1.80002039       2.54984837       0.24992929        1 
H       2.18676382      -2.33217413      -0.45773310        1 
