24
Lattice="0.0 0.0 0.0 0.0 0.0 0.0 0.0 0.0 0.0" Properties=species:S:1:pos:R:3:Z:I:1 pbc="F F F"
C       0.69971654       0.54417926      -0.05465356        6 
C      -0.70731277       0.52587783       0.10408932        6 
C       1.54633831      -0.66384820       0.23070448        6 
C      -1.50609335      -0.72368568      -0.14092723        6 
O       2.75739309      -0.57199725      -0.36828272        8 
O       1.21720363      -1.59932628       0.91249720        8 
O      -2.81261781      -0.54696251       0.17592162        8 
O      -1.07450791      -1.76480186      -0.56472999        8 
C      -3.66643626      -1.68248078      -0.04662433        6 
C       3.64829445      -1.67713642      -0.13263304        6 
C       1.35373184       1.77410173      -0.16426155        6 
C       0.64940481       2.97566980      -0.10997966        6 
C      -0.72578029       2.95934431       0.08800885        6 
C      -1.39606913       1.74081092       0.16971432        6 
H      -3.66604356      -1.96084687      -1.10183754        1 
H       3.86443537      -1.77460878       0.93253253        1 
H      -1.28390929       3.88628144       0.15161217        1 
H      -3.33105319      -2.53346824       0.54789125        1 
H      -4.65863708      -1.36290300       0.26501565        1 
H       4.55331013      -1.44284331      -0.68891692        1 
H       3.20276904      -2.60529348      -0.49363807        1 
H       1.18082495       3.91599007      -0.20036373        1 
H      -2.47339989       1.72081849       0.25683026        1 
H       2.43065993       1.78073580      -0.26410423        1 
