24
Lattice="0.0 0.0 0.0 0.0 0.0 0.0 0.0 0.0 0.0" Properties=species:S:1:pos:R:3:Z:I:1 pbc="F F F"
C       0.99249762      -0.59217765       0.02319135        6 
C       0.54876386       0.73426900      -0.08726809        6 
C       0.06205786      -1.76189505      -0.03439498        6 
C      -0.88929893       1.04686789      -0.37061533        6 
O      -1.07260290      -1.52828357       0.65387311        8 
O       0.30417363      -2.79700467      -0.60611942        8 
O      -1.38860076       1.92267121       0.52146613        8 
O      -1.50802469       0.61873573      -1.31432302        8 
C      -2.75854388       2.31809847       0.31157944        6 
C      -2.09696327      -2.53450758       0.55039181        6 
C       2.35565602      -0.85594677       0.16653144        6 
C       3.27153143       0.18886614       0.23527227        6 
C       2.82774324       1.50739183       0.15095400        6 
C       1.47084454       1.77855353      -0.00625454        6 
H      -2.87346497       2.79982433      -0.66059563        1 
H      -2.44949548      -2.60006990      -0.48026430        1 
H       3.53690668       2.32531211       0.20347520        1 
H      -3.41372502       1.44713325       0.36008475        1 
H      -2.98453732       3.01384926       1.11624592        1 
H      -2.89670863      -2.20137598       1.20799283        1 
H      -1.71416252      -3.50494441       0.86813186        1 
H       4.32707447      -0.02537624       0.35492978        1 
H       1.12161779       2.80110820      -0.08062005        1 
H       2.68228015      -1.88698627       0.22681774        1 
