24
Lattice="0.0 0.0 0.0 0.0 0.0 0.0 0.0 0.0 0.0" Properties=species:S:1:pos:R:3:Z:I:1 pbc="F F F"
C       0.72234138       0.58254534       0.18866978        6 
C      -0.67714152       0.65112106       0.08346306        6 
C       1.43178192      -0.73604410       0.25348073        6 
C      -1.58615386      -0.52925485       0.29280593        6 
O       2.52840908      -0.72533138      -0.54196901        8 
O       1.11544889      -1.68362522       0.92702548        8 
O      -2.26913176      -0.81165053      -0.83967051        8 
O      -1.72923916      -1.11983067       1.32934058        8 
C      -3.21651389      -1.89463437      -0.74404859        6 
C       3.31276137      -1.93286021      -0.53538768        6 
C       1.47276949       1.75938255       0.09086616        6 
C       0.84794094       2.99230053      -0.06179590        6 
C      -0.53847780       3.05597823      -0.18262715        6 
C      -1.29228268       1.88847301      -0.12235169        6 
H      -2.70845269      -2.81842219      -0.46418579        1 
H       3.67732011      -2.14702235       0.47046107        1 
H      -1.03304587       4.00981515      -0.32562841        1 
H      -3.98139091      -1.66608510      -0.00023356        1 
H      -3.65706250      -1.98107618      -1.73474840        1 
H       4.14129557      -1.74228538      -1.21383633        1 
H       2.71546676      -2.77599337      -0.88588554        1 
H       1.44293677       3.89680946      -0.10723548        1 
H      -2.37013577       1.93101776      -0.22486973        1 
H       2.55227581       1.69628810       0.13078673        1 
