24
Lattice="0.0 0.0 0.0 0.0 0.0 0.0 0.0 0.0 0.0" Properties=species:S:1:pos:R:3:Z:I:1 pbc="F F F"
C       0.86559573      -0.68335007       0.04148364        6 
C       0.70138999       0.68871282      -0.17924922        6 
C      -0.27598594      -1.63157466      -0.19049001        6 
C      -0.67031749       1.24626578      -0.42465915        6 
O      -1.17704730      -1.57732557       0.81094651        8 
O      -0.40492442      -2.30710011      -1.17877378        8 
O      -1.11280352       1.92868375       0.64773366        8 
O      -1.28859249       1.13380233      -1.45449032        8 
C      -2.42954544       2.50353730       0.52857026        6 
C      -2.36916132      -2.37030431       0.62994736        6 
C       2.13637005      -1.19572306       0.30366004        6 
C       3.23319226      -0.34256662       0.37873083        6 
C       3.06735399       1.02538054       0.16838209        6 
C       1.80202397       1.54140363      -0.09807752        6 
H      -2.46371503       3.21510295      -0.29770192        1 
H      -2.90419802      -2.04627170      -0.26385223        1 
H       3.92100739       1.69114738       0.21604125        1 
H      -3.16893670       1.71937959       0.35914778        1 
H      -2.61164991       3.00404825       1.47665505        1 
H      -2.96670084      -2.19865726       1.52238217        1 
H      -2.11400964      -3.42647344       0.53494508        1 
H       4.21609013      -0.74657613       0.59118059        1 
H       1.66487727       2.60579527      -0.24791664        1 
H       2.26178192      -2.26339429       0.44199361        1 
