24
Lattice="0.0 0.0 0.0 0.0 0.0 0.0 0.0 0.0 0.0" Properties=species:S:1:pos:R:3:Z:I:1 pbc="F F F"
C       0.68671808       0.60785044      -0.18032886        6 
C      -0.65329462       0.76767753       0.19568752        6 
C       1.26732275      -0.76846104      -0.24782353        6 
C      -1.53620499      -0.42458546       0.44539315        6 
O       2.45763437      -0.83651388       0.37796535        8 
O       0.76161789      -1.70049987      -0.82811727        8 
O      -2.21627070      -0.75996194      -0.65927132        8 
O      -1.66271495      -0.96357750       1.51795303        8 
C      -3.05260648      -1.93022135      -0.55608972        6 
C       3.10958036      -2.12207803       0.34558879        6 
C       1.48321600       1.73426100      -0.39936214        6 
C       0.93449634       3.00914141      -0.29879787        6 
C      -0.40151477       3.16535230       0.06725073        6 
C      -1.19265817       2.04699608       0.31689400        6 
H      -2.44319686      -2.80064546      -0.31041565        1 
H       2.47981116      -2.87647154       0.81877605        1 
H      -0.82908766       4.15708042       0.15940077        1 
H      -3.81570787      -1.78869286       0.21063457        1 
H      -3.50714336      -2.04504742      -1.53721067        1 
H       4.03402070      -1.98930990       0.90272600        1 
H       3.31644917      -2.41861117      -0.68374006        1 
H       1.55119154       3.87883429      -0.49274815        1 
H      -2.23081407       2.16473789       0.60505716        1 
H       2.52778102       1.60367276      -0.65267446        1 
