24
Lattice="0.0 0.0 0.0 0.0 0.0 0.0 0.0 0.0 0.0" Properties=species:S:1:pos:R:3:Z:I:1 pbc="F F F"
C       1.04868342      -0.35528241       0.14007214        6 
C       0.24060278       0.79320331      -0.03091526        6 
C       0.58761740      -1.78332995      -0.00207322        6 
C      -1.22921410       0.83595129       0.27875630        6 
O      -0.73447519      -1.91479470      -0.15286294        8 
O       1.35725367      -2.71362905      -0.10725248        8 
O      -1.86288572       1.75098164      -0.49423298        8 
O      -1.79040869       0.18146401       1.11912285        8 
C      -3.26608919       1.92651622      -0.22997677        6 
C      -1.22661761      -3.24810972      -0.36813218        6 
C       2.43906788      -0.20529487       0.15034397        6 
C       3.03946506       1.04093375       0.00969192        6 
C       2.24624543       2.16303831      -0.20413984        6 
C       0.86036865       2.03460311      -0.21757487        6 
H      -3.80493017       0.99255246      -0.39735910        1 
H      -0.81473847      -3.66532666      -1.28869606        1 
H       2.69774423       3.13814617      -0.34581980        1 
H      -3.42445147       2.25010414       0.80009345        1 
H      -3.59883025       2.69101410      -0.92872411        1 
H      -2.30692246      -3.14433516      -0.43989268        1 
H      -0.95884034      -3.89240090       0.47040299        1 
H       4.11937607       1.12663379       0.03872298        1 
H       0.23687836       2.90964083      -0.34371083        1 
H       3.03965639      -1.10190188       0.23347412        1 
