24
Lattice="0.0 0.0 0.0 0.0 0.0 0.0 0.0 0.0 0.0" Properties=species:S:1:pos:R:3:Z:I:1 pbc="F F F"
C       0.70855162      -0.67369227      -0.17973712        6 
C       0.79796158       0.68181976       0.20013349        6 
C      -0.55223101      -1.48680444      -0.26776969        6 
C      -0.30644107       1.68828408       0.03593113        6 
O      -1.29632225      -1.37055275       0.84392686        8 
O      -0.78080642      -2.28548785      -1.14623503        8 
O      -1.53638767       1.15272664      -0.02433257        8 
O      -0.09656808       2.86743572      -0.14023996        8 
C      -2.61161474       2.06407497      -0.31544963        6 
C      -2.51045975      -2.14015227       0.87269247        6 
C       1.87850796      -1.42456211      -0.32868625        6 
C       3.12492735      -0.87034519      -0.05758648        6 
C       3.21403084       0.45518489       0.36045356        6 
C       2.06226078       1.22776425       0.45119642        6 
H      -2.68728824       2.82499146       0.46239018        1 
H      -3.18270445      -1.81490439       0.07626758        1 
H       4.17888533       0.89628443       0.58133740        1 
H      -2.45060806       2.54896193      -1.27933089        1 
H      -3.50899461       1.44961889      -0.33913724        1 
H      -2.95180984      -1.94631240       1.84764741        1 
H      -2.29714980      -3.20295093       0.74902888        1 
H       4.01866408      -1.47370308      -0.16740508        1 
H       2.12466928       2.28285039       0.68485766        1 
H       1.79104276      -2.45868337      -0.63852173        1 
