24
Lattice="0.0 0.0 0.0 0.0 0.0 0.0 0.0 0.0 0.0" Properties=species:S:1:pos:R:3:Z:I:1 pbc="F F F"
C       0.72919395       0.53613992       0.17088873        6 
C      -0.67550084       0.57923543       0.06971077        6 
C       1.49741097      -0.75435532       0.19612405        6 
C      -1.58049657      -0.60775919       0.25370276        6 
O       2.64048359      -0.63057919      -0.52670867        8 
O       1.19428477      -1.76819841       0.76876576        8 
O      -2.48695862      -0.66596330      -0.75325834        8 
O      -1.55626763      -1.38176868       1.17198928        8 
C      -3.46358788      -1.71983284      -0.65262378        6 
C       3.48340579      -1.79652733      -0.55671389        6 
C       1.44999367       1.73517250       0.11199047        6 
C       0.80249589       2.96008226      -0.00378644        6 
C      -0.58373718       2.99929516      -0.12559450        6 
C      -1.31065760       1.81432526      -0.10151006        6 
H      -2.97196286      -2.69327902      -0.62560713        1 
H       3.81404189      -2.05629192       0.45037474        1 
H      -1.09925922       3.94580657      -0.24054376        1 
H      -4.06479808      -1.59775534       0.25015768        1 
H      -4.08288047      -1.62567948      -1.54194109        1 
H       4.33069290      -1.52416255      -1.18211850        1 
H       2.94590310      -2.64418465      -0.98465734        1 
H       1.38079964       3.87639275      -0.01950697        1 
H      -2.38822037       1.83698157      -0.20410215        1 
H       2.53000553       1.69414602       0.15128452        1 
