24
Lattice="0.0 0.0 0.0 0.0 0.0 0.0 0.0 0.0 0.0" Properties=species:S:1:pos:R:3:Z:I:1 pbc="F F F"
C      -0.70527393      -0.65416807      -0.12898861        6 
C      -0.87589438       0.71113099       0.13420895        6 
C       0.64694211      -1.25847051      -0.38527811        6 
C       0.23391106       1.68973994      -0.09287939        6 
O       1.21729711      -1.66077812       0.76188673        8 
O       1.12212827      -1.43908117      -1.47960885        8 
O       1.35231246       1.35309673       0.57835676        8 
O       0.16222965       2.62225550      -0.85511554        8 
C       2.51892152       2.15153967       0.29919556        6 
C       2.51740039      -2.26816968       0.64042722        6 
C      -1.81121028      -1.50652643      -0.11430259        6 
C      -3.08095335      -1.00841131       0.16188261        6 
C      -3.25445360       0.35088580       0.41921695        6 
C      -2.16038922       1.20809933       0.37753631        6 
H       2.77140645       2.09107168      -0.76045679        1 
H       2.46517862      -3.16386845       0.01963686        1 
H      -4.24194280       0.74429055       0.63048620        1 
H       2.34127317       3.19314533       0.56958343        1 
H       3.31160257       1.72660304       0.91069478        1 
H       2.81388024      -2.51957812       1.65599141        1 
H       3.22210528      -1.56333042       0.19627798        1 
H      -3.93193999      -1.67975845       0.17297485        1 
H      -2.29245838       2.27336995       0.52431540        1 
H      -1.67337159      -2.56168013      -0.32078864        1 
