24
Lattice="0.0 0.0 0.0 0.0 0.0 0.0 0.0 0.0 0.0" Properties=species:S:1:pos:R:3:Z:I:1 pbc="F F F"
C      -0.59679561      -0.64852170      -0.10341278        6 
C      -0.89177338       0.72756130      -0.10362344        6 
C       0.76846601      -1.24089318      -0.32401959        6 
C       0.12549027       1.81440741       0.06813570        6 
O       1.16195681      -1.94368288       0.75966471        8 
O       1.40142784      -1.16699627      -1.34432206        8 
O       1.35340081       1.45683534      -0.33262148        8 
O      -0.12634209       2.88527104       0.57312104        8 
C       2.40065924       2.42194683      -0.13338858        6 
C       2.41873353      -2.63722591       0.63520766        6 
C      -1.64592650      -1.57218871      -0.03934953        6 
C      -2.97196201      -1.15331692      -0.01420020        6 
C      -3.26683262       0.20811985      -0.03416695        6 
C      -2.23132852       1.13415926      -0.05002645        6 
H       2.18068180       3.33957565      -0.68063262        1 
H       2.37185290      -3.36848737      -0.17355193        1 
H      -4.29614591       0.54688123      -0.01388388        1 
H       2.50933884       2.65293959       0.92753120        1 
H       3.30001442       1.94968817      -0.52170963        1 
H       2.57167530      -3.13158063       1.59179639        1 
H       3.22413413      -1.92996782       0.43268397        1 
H      -3.76870627      -1.88768213       0.02226986        1 
H      -2.44005269       2.19533573      -0.00111167        1 
H      -1.41453805      -2.63068422      -0.02334423        1 
