24
Lattice="0.0 0.0 0.0 0.0 0.0 0.0 0.0 0.0 0.0" Properties=species:S:1:pos:R:3:Z:I:1 pbc="F F F"
C       0.67977663       0.50427632      -0.03422096        6 
C      -0.72743589       0.46133632       0.14829851        6 
C       1.61023342      -0.66419267       0.15997633        6 
C      -1.55115688      -0.80297889       0.07410027        6 
O       2.78343042      -0.45595681      -0.49759443        8 
O       1.39224766      -1.66225711       0.79111836        8 
O      -2.83831976      -0.50123076      -0.25975984        8 
O      -1.19539900      -1.93454609       0.26471719        8 
C      -3.73525198      -1.62088334      -0.34256726        6 
C       3.76039573      -1.50142848      -0.35752900        6 
C       1.29710019       1.75502361      -0.18251745        6 
C       0.57646280       2.94254517      -0.12428796        6 
C      -0.79442347       2.90120289       0.09810559        6 
C      -1.43311304       1.67137200       0.20432562        6 
H      -3.39687784      -2.32843718      -1.10133343        1 
H       4.04113838      -1.62665229       0.68966299        1 
H      -1.37183064       3.81585394       0.16711468        1 
H      -3.79964243      -2.13388332       0.61847976        1 
H      -4.69938197      -1.19768732      -0.61716727        1 
H       4.61530609      -1.17933506      -0.94826475        1 
H       3.36494459      -2.44578483      -0.73497312        1 
H       1.09017574       3.89037898      -0.23616278        1 
H      -2.50662297       1.63558412       0.31733796        1 
H       2.36830753       1.78425624      -0.32173178        1 
