24
Lattice="0.0 0.0 0.0 0.0 0.0 0.0 0.0 0.0 0.0" Properties=species:S:1:pos:R:3:Z:I:1 pbc="F F F"
C      -0.50218396      -0.72211975      -0.05500148        6 
C      -0.97911842       0.60132377      -0.05168857        6 
C       0.92381653      -1.07922398      -0.35769079        6 
C      -0.10121392       1.81120493      -0.00383316        6 
O       1.43546418      -1.88765703       0.59153339        8 
O       1.51300334      -0.75549524      -1.35806104        8 
O       1.16090790       1.51370211       0.34859515        8 
O      -0.49572205       2.94140045      -0.17801993        8 
C       2.08923024       2.61130165       0.38642193        6 
C       2.77311395      -2.36596456       0.35254896        6 
C      -1.41002859      -1.77790165       0.06337675        6 
C      -2.77856065      -1.53506970       0.15332838        6 
C      -3.25421373      -0.22646179       0.12885429        6 
C      -2.35592432       0.83159575       0.03824789        6 
H       2.11645191       3.11665444      -0.57944791        1 
H       2.81208923      -2.94215707      -0.57328425        1 
H      -4.31788815      -0.02954333       0.19540405        1 
H       1.80291952       3.32426008       1.16126012        1 
H       3.05421374       2.16379433       0.61284234        1 
H       3.01254499      -2.99380356       1.20770524        1 
H       3.46785643      -1.52787307       0.28305002        1 
H      -3.46849918      -2.36720672       0.23673542        1 
H      -2.70259920       1.85731375       0.05008159        1 
H      -1.03885577      -2.79554483       0.06707062        1 
