24
Lattice="0.0 0.0 0.0 0.0 0.0 0.0 0.0 0.0 0.0" Properties=species:S:1:pos:R:3:Z:I:1 pbc="F F F"
C       0.71387791       0.59244681      -0.01038358        6 
C      -0.69538359       0.59277580       0.00711703        6 
C       1.48010105      -0.67089143       0.23654327        6 
C      -1.47763429      -0.66027940      -0.25134385        6 
O       2.71697081      -0.62190679      -0.30333620        8 
O       1.06352024      -1.61440511       0.86113285        8 
O      -2.67552194      -0.63492931       0.37239879        8 
O      -1.11232481      -1.56518996      -0.95859107        8 
C      -3.52168407      -1.77762378       0.14496441        6 
C       3.53031473      -1.79199279      -0.09623852        6 
C       1.39729870       1.80967248      -0.02663974        6 
C       0.70218850       3.01802648      -0.01855511        6 
C      -0.68796678       3.01755323       0.02666150        6 
C      -1.38094016       1.80835394       0.03106511        6 
H      -3.77627868      -1.85956038      -0.91312022        1 
H       3.69310762      -1.96074780       0.96947539        1 
H      -1.23606433       3.95244351       0.04426349        1 
H      -3.01820863      -2.69055371       0.46522977        1 
H      -4.41349406      -1.59980126       0.74191587        1 
H       4.47064202      -1.58335671      -0.60150225        1 
H       3.04592575      -2.66874201      -0.52838588        1 
H       1.24883539       3.95371056      -0.03123399        1 
H      -2.46309802       1.79866814       0.03008488        1 
H       2.47918438       1.80142601      -0.02224458        1 
