24
Lattice="0.0 0.0 0.0 0.0 0.0 0.0 0.0 0.0 0.0" Properties=species:S:1:pos:R:3:Z:I:1 pbc="F F F"
C      -0.58334689      -0.69280084       0.08698767        6 
C      -0.93872668       0.66740836       0.05526179        6 
C       0.80793819      -1.19407188       0.35954519        6 
C       0.04240157       1.79275574      -0.02667853        6 
O       1.32163085      -1.80770784      -0.72366869        8 
O       1.35967579      -1.12994436       1.42808147        8 
O       1.31735226       1.36836427      -0.02824598        8 
O      -0.26995943       2.95582139      -0.14429805        8 
C       2.33236314       2.38339712      -0.10983536        6 
C       2.63184934      -2.38274725      -0.55695053        6 
C      -1.58313111      -1.66521966      -0.00049984        6 
C      -2.92447320      -1.30473712      -0.09163626        6 
C      -3.28107739       0.04210490      -0.10061769        6 
C      -2.29149599       1.01587837      -0.04261260        6 
H       2.26046011       2.91627130      -1.05921554        1 
H       3.35176597      -1.60953100      -0.28499967        1 
H      -4.32299147       0.33239069      -0.16919391        1 
H       2.22619968       3.09206167       0.71214333        1 
H       3.27731857       1.85002971      -0.03664070        1 
H       2.88102569      -2.81793973      -1.52199737        1 
H       2.61699156      -3.14922203       0.21965709        1 
H      -3.68607653      -2.07402663      -0.15217571        1 
H      -2.54419812       2.06770111      -0.08691571        1 
H      -1.30514187      -2.71256563       0.01659230        1 
