24
Lattice="0.0 0.0 0.0 0.0 0.0 0.0 0.0 0.0 0.0" Properties=species:S:1:pos:R:3:Z:I:1 pbc="F F F"
C       0.94891764      -0.64354097      -0.00057224        6 
C       0.61550471       0.71741468       0.10020070        6 
C      -0.05395997      -1.75166355      -0.02682844        6 
C      -0.78054699       1.19800499       0.38451831        6 
O      -1.31082597      -1.30487175      -0.20764869        8 
O       0.22703352      -2.92473047       0.06075605        8 
O      -1.33237445       1.76834395      -0.70136753        8 
O      -1.30992488       1.14267980       1.46588778        8 
C      -2.67402553       2.26587346      -0.53462315        6 
C      -2.35215413      -2.29752456      -0.20514401        6 
C       2.29115284      -1.01330503      -0.13602680        6 
C       3.29229983      -0.05145632      -0.18336622        6 
C       2.95694957       1.29894277      -0.10228964        6 
C       1.62491886       1.67873027       0.03898378        6 
H      -3.34304559       1.45326142      -0.24717266        1 
H      -2.21407300      -2.99403954      -1.03325915        1 
H       3.73022631       2.05734714      -0.14493634        1 
H      -2.70332882       3.04321880       0.23040969        1 
H      -2.95490341       2.66959179      -1.50466366        1 
H      -3.27977798      -1.74146519      -0.32101967        1 
H      -2.34936740      -2.84752174       0.73656173        1 
H       4.32759364      -0.35324239      -0.28934296        1 
H       1.36393041       2.72773923       0.11431992        1 
H       2.52447434      -2.06797895      -0.21114427        1 
