24
Lattice="0.0 0.0 0.0 0.0 0.0 0.0 0.0 0.0 0.0" Properties=species:S:1:pos:R:3:Z:I:1 pbc="F F F"
C       0.28992898      -0.76650322       0.09764071        6 
C      -1.02055134      -0.30685801      -0.18010947        6 
C       1.49852958       0.06565039      -0.21951595        6 
C      -1.47506960       1.12719335      -0.13874245        6 
O       2.63698533      -0.52227398       0.22057967        8 
O       1.49430064       1.12416688      -0.79675392        8 
O      -0.66363296       1.90238533       0.59186455        8 
O      -2.55106787       1.49724182      -0.55297874        8 
C      -1.05489250       3.27811405       0.72800327        6 
C       3.85615799       0.17990432      -0.07424978        6 
C       0.48213343      -2.12919273       0.35684691        6 
C      -0.58071474      -3.02964838       0.34109829        6 
C      -1.85691565      -2.58368756       0.01716329        6 
C      -2.06975570      -1.22880295      -0.22348353        6 
H      -1.10361445       3.75554121      -0.25178368        1 
H       3.97639976       0.30148339      -1.15193748        1 
H      -2.68848302      -3.27775652      -0.02676214        1 
H      -2.02815019       3.35360945       1.21566412        1 
H      -0.28017561       3.73727810       1.33762536        1 
H       4.65196739      -0.43953609       0.33362507        1 
H       3.85393715       1.16325847       0.39854612        1 
H      -0.40196942      -4.07756823       0.55338552        1 
H      -3.06650734      -0.85281606      -0.41651906        1 
H       1.48636222      -2.48568377       0.53814363        1 
