24
Lattice="0.0 0.0 0.0 0.0 0.0 0.0 0.0 0.0 0.0" Properties=species:S:1:pos:R:3:Z:I:1 pbc="F F F"
C       0.86407936      -0.70551676       0.01453670        6 
C       0.78136882       0.69063896      -0.10913497        6 
C      -0.33143463      -1.59999406       0.07493460        6 
C      -0.52756091       1.41405415      -0.24709863        6 
O      -1.37147042      -1.10423946      -0.62335159        8 
O      -0.36535846      -2.65253606       0.66773642        8 
O      -1.22117322       1.38168974       0.90746443        8 
O      -0.90398333       1.96350225      -1.25077179        8 
C      -2.53327615       1.97355597       0.86849324        6 
C      -2.59363151      -1.86182929      -0.57695695        6 
C       2.11724248      -1.31411460       0.13185070        6 
C       3.27936998      -0.55321023       0.09407132        6 
C       3.19621229       0.83066791      -0.05215225        6 
C       1.95238622       1.44758913      -0.15566634        6 
H      -2.47070866       3.02860324       0.59861759        1 
H      -2.43149971      -2.87116669      -0.95696114        1 
H       4.09811899       1.43071624      -0.08520228        1 
H      -3.15822209       1.45314504       0.14038926        1 
H      -2.93381158       1.85673684       1.87285193        1 
H      -3.29116278      -1.32041310      -1.21203274        1 
H      -2.96485303      -1.91812320       0.44787749        1 
H       4.24526369      -1.03757697       0.17617963        1 
H       1.88288756       2.52271789      -0.27148509        1 
H       2.15918338      -2.38994899       0.24957311        1 
