24
Lattice="0.0 0.0 0.0 0.0 0.0 0.0 0.0 0.0 0.0" Properties=species:S:1:pos:R:3:Z:I:1 pbc="F F F"
C       0.65762359      -0.76990187       0.19785301        6 
C      -0.67471565      -0.58885576      -0.19378537        6 
C       1.55278884       0.41082159       0.44990552        6 
C      -1.25106484       0.78976177      -0.26472035        6 
O       2.23274241       0.73960372      -0.65642885        8 
O       1.67832094       0.95394978       1.52032322        8 
O      -2.40654941       0.86799433       0.42334192        8 
O      -0.78443817       1.70492132      -0.90053858        8 
C      -3.08216663       2.14015564       0.38080680        6 
C       3.07683633       1.90408034      -0.55748147        6 
C       1.16992037      -2.06029925       0.33218678        6 
C       0.36109094      -3.16616305       0.08112059        6 
C      -0.96721123      -2.98813214      -0.30211700        6 
C      -1.48895230      -1.70339193      -0.41599287        6 
H      -2.44757432       2.91998533       0.80353309        1 
H       2.47111020       2.78114841      -0.32643853        1 
H      -1.59904515      -3.84710073      -0.49656435        1 
H      -3.33893228       2.40069385      -0.64712236        1 
H      -3.97938712       2.00862691       0.98123357        1 
H       3.54120326       2.00560912      -1.53534377        1 
H       3.83089663       1.76482647       0.21839723        1 
H       0.76829601      -4.16524104       0.18630215        1 
H      -2.52921716      -1.55699013      -0.67934024        1 
H       2.20164878      -2.19791829       0.63385672        1 
