24
Lattice="0.0 0.0 0.0 0.0 0.0 0.0 0.0 0.0 0.0" Properties=species:S:1:pos:R:3:Z:I:1 pbc="F F F"
C      -0.55950036      -0.70619588      -0.11946091        6 
C      -0.97263682       0.62293571       0.04882473        6 
C       0.88240981      -1.03689848      -0.34715083        6 
C      -0.00558406       1.75893040      -0.08289681        6 
O       1.30355734      -1.98990316       0.50588863        8 
O       1.56572630      -0.56927621      -1.22606532        8 
O       1.01058933       1.63821933       0.79212297        8 
O      -0.10682246       2.64769626      -0.89066074        8 
C       2.09493908       2.57302701       0.62791243        6 
C       2.65895169      -2.44434915       0.32344900        6 
C      -1.50244797      -1.73573513      -0.06007072        6 
C      -2.85096882      -1.44523883       0.12464114        6 
C      -3.26403253      -0.12190533       0.27102570        6 
C      -2.32837220       0.90761483       0.22260538        6 
H       2.53005909       2.46150858      -0.36619820        1 
H       2.78231111      -2.88478734      -0.66726227        1 
H      -4.31299203       0.10820257       0.41800541        1 
H       1.74050862       3.59609237       0.75952289        1 
H       2.81796645       2.31400888       1.39781787        1 
H       2.81918851      -3.18939920       1.09921136        1 
H       3.35596805      -1.61312483       0.43677487        1 
H      -3.57662370      -2.24996151       0.15643365        1 
H      -2.64302408       1.93988049       0.31862867        1 
H      -1.17497601      -2.76250811      -0.16750588        1 
