24
Lattice="0.0 0.0 0.0 0.0 0.0 0.0 0.0 0.0 0.0" Properties=species:S:1:pos:R:3:Z:I:1 pbc="F F F"
C      -0.48981890      -0.72794271      -0.04955491        6 
C      -0.98520700       0.58934892      -0.05763924        6 
C       0.93888302      -1.07520811      -0.35312064        6 
C      -0.12848398       1.81431622       0.01000380        6 
O       1.46074158      -1.86797184       0.60421803        8 
O       1.52224600      -0.75750766      -1.35846239        8 
O       1.15365724       1.53089777       0.29234170        8 
O      -0.55394515       2.94276254      -0.08792450        8 
C       2.05606786       2.64833843       0.35849824        6 
C       2.80241717      -2.33583988       0.36740594        6 
C      -1.38448043      -1.79499268       0.07039744        6 
C      -2.75681133      -1.57123242       0.15027573        6 
C      -3.25054224      -0.26971516       0.11411295        6 
C      -2.36594992       0.79975962       0.02521885        6 
H       2.03241076       3.20897339      -0.57647638        1 
H       2.84114981      -2.93696636      -0.54253065        1 
H      -4.31720985      -0.08702739       0.17268278        1 
H       1.78409736       3.30833032       1.18383440        1 
H       3.03964295       2.21373143       0.52086128        1 
H       3.05640728      -2.93732342       1.23719906        1 
H       3.48621670      -1.49175949       0.26900484        1 
H      -3.43527923      -2.41265312       0.23476934        1 
H      -2.72576428       1.82089831       0.03480264        1 
H      -0.99951031      -2.80742175       0.08258453        1 
