24
Lattice="0.0 0.0 0.0 0.0 0.0 0.0 0.0 0.0 0.0" Properties=species:S:1:pos:R:3:Z:I:1 pbc="F F F"
C       1.05245735      -0.45823594       0.02541600        6 
C       0.41421432       0.79304807       0.05159972        6 
C       0.30626280      -1.75581341       0.07222621        6 
C      -1.05280035       0.90042658       0.32574757        6 
O      -0.77528840      -1.73428426      -0.72844655        8 
O       0.66407439      -2.72159404       0.70182120        8 
O      -1.62601148       1.87288601      -0.41208682        8 
O      -1.64962873       0.23921154       1.14106141        8 
C      -3.03016473       2.09231138      -0.17857370        6 
C      -1.64008747      -2.88260851      -0.65611418        6 
C       2.44195990      -0.52322276      -0.07892665        6 
C       3.19689045       0.64146136      -0.18412351        6 
C       2.56309431       1.88227738      -0.18182981        6 
C       1.17759268       1.95656394      -0.06442167        6 
H      -3.59568844       1.18367715      -0.38982634        1 
H      -1.09074013      -3.79381563      -0.89586623        1 
H       3.14560426       2.79242827      -0.26463632        1 
H      -3.20302907       2.38949044       0.85693022        1 
H      -3.31520352       2.88955010      -0.86125709        1 
H      -2.42315156      -2.70132632      -1.38892971        1 
H      -2.06388547      -2.96314762       0.34615371        1 
H       4.27535695       0.57875386      -0.27067478        1 
H       0.67995497       2.91757694      -0.04466659        1 
H       2.91760460      -1.49636839      -0.08581244        1 
