24
Lattice="0.0 0.0 0.0 0.0 0.0 0.0 0.0 0.0 0.0" Properties=species:S:1:pos:R:3:Z:I:1 pbc="F F F"
C       0.84191412      -0.69159423      -0.01904699        6 
C       0.73865048       0.69250334       0.15830121        6 
C      -0.33623157      -1.58721689       0.23821573        6 
C      -0.59681895       1.32502318       0.42884919        6 
O      -1.22623515      -1.54030740      -0.77276101        8 
O      -0.49331905      -2.22812703       1.24597347        8 
O      -1.14328457       1.79861338      -0.70551422        8 
O      -1.10730791       1.42199637       1.51715470        8 
C      -2.44375666       2.40713597      -0.57519337        6 
C      -2.43642863      -2.30354467      -0.58587233        6 
C       2.08581116      -1.26529108      -0.28383619        6 
C       3.21636938      -0.46277179      -0.40269181        6 
C       3.11191708       0.91636090      -0.23062302        6 
C       1.87474716       1.49291725       0.04449858        6 
H      -3.16001927       1.68438147      -0.18139477        1 
H      -2.20480756      -3.36259289      -0.46552024        1 
H       3.99181652       1.54362752      -0.31176529        1 
H      -2.39827615       3.26913903       0.09188354        1 
H      -2.72021002       2.71256614      -1.58160712        1 
H      -3.02181194      -2.13872360      -1.48759036        1 
H      -2.97362356      -1.95012676       0.29542678        1 
H       4.17738785      -0.91484856      -0.61830402        1 
H       1.78731013       2.56536348       0.17371357        1 
H       2.16397466      -2.34107672      -0.39097207        1 
