24
Lattice="0.0 0.0 0.0 0.0 0.0 0.0 0.0 0.0 0.0" Properties=species:S:1:pos:R:3:Z:I:1 pbc="F F F"
C       0.30527581      -0.76845410       0.09279083        6 
C      -1.01361705      -0.33230503      -0.17614928        6 
C       1.49038861       0.09667807      -0.21960356        6 
C      -1.48196460       1.09636791      -0.15351316        6 
O       2.64588344      -0.46710570       0.20523012        8 
O       1.45400745       1.16162845      -0.78466531        8 
O      -0.72455857       1.86678145       0.63910269        8 
O      -2.52860657       1.46416932      -0.63765855        8 
C      -1.12329713       3.24250129       0.75308321        6 
C       3.84496315       0.26988409      -0.08838070        6 
C       0.52491185      -2.12691476       0.35076340        6 
C      -0.52320398      -3.04459688       0.34454204        6 
C      -1.80991270      -2.62037900       0.03167768        6 
C      -2.04834638      -1.27013423      -0.21217419        6 
H      -1.06920986       3.73183236      -0.22065823        1 
H       3.95770119       0.40264477      -1.16557915        1 
H      -2.62966030      -3.32892422      -0.00329491        1 
H      -2.14095674       3.31626785       1.13976541        1 
H      -0.41318334       3.69071119       1.44413957        1 
H       4.65850251      -0.33122661       0.31178486        1 
H       3.81794639       1.24910116       0.39196394        1 
H      -0.32574785      -4.08934745       0.55576840        1 
H      -3.05213688      -0.91286185      -0.40472674        1 
H       1.53665770      -2.46530653       0.52517746        1 
