24
Lattice="0.0 0.0 0.0 0.0 0.0 0.0 0.0 0.0 0.0" Properties=species:S:1:pos:R:3:Z:I:1 pbc="F F F"
C       0.71615295      -0.75737790       0.15040450        6 
C      -0.66041218      -0.61273241      -0.08463775        6 
C       1.61610029       0.42328197       0.39508952        6 
C      -1.27462912       0.74575752      -0.05189586        6 
O       2.10536167       0.89862653      -0.75896681        8 
O       1.91364024       0.82958839       1.49042316        8 
O      -2.61292288       0.69239629       0.11317410        8 
O      -0.66474002       1.78296222      -0.17443733        8 
C      -3.29530253       1.95903377       0.14579804        6 
C       2.89558665       2.09866043      -0.65836620        6 
C       1.28062592      -2.03242669       0.17779010        6 
C       0.49061100      -3.15943266      -0.03631456        6 
C      -0.87562793      -3.01980115      -0.27416151        6 
C      -1.44892618      -1.75328142      -0.28362065        6 
H      -2.91221294       2.57556310       0.95995085        1 
H       2.28828119       2.90239970      -0.23997931        1 
H      -1.49357079      -3.89463003      -0.44040494        1 
H      -3.16353895       2.48832949      -0.79931609        1 
H      -4.34333311       1.71716929       0.30762661        1 
H       3.19392406       2.33317579      -1.67754294        1 
H       3.77039181       1.93260390      -0.02794434        1 
H       0.94231895      -4.14478310      -0.01645450        1 
H      -2.51176351      -1.63446073      -0.44632852        1 
H       2.34177590      -2.14103927       0.36881485        1 
