24
Lattice="0.0 0.0 0.0 0.0 0.0 0.0 0.0 0.0 0.0" Properties=species:S:1:pos:R:3:Z:I:1 pbc="F F F"
C       0.76212476       0.76211923      -0.12838633        6 
C      -0.62394342       0.64107123       0.06894120        6 
C       1.65448773      -0.43077432      -0.33937017        6 
C      -1.27081899      -0.70061712      -0.03123529        6 
O       1.93229714      -1.03613800       0.82502904        8 
O       2.11762205      -0.74508868      -1.40726516        8 
O      -2.61858034      -0.61922377      -0.01803944        8 
O      -0.67887837      -1.75279047      -0.10797444        8 
C      -3.32622057      -1.86916949      -0.10818784        6 
C       2.65464351      -2.27878214       0.72866923        6 
C       1.35057558       2.02554450      -0.13809475        6 
C       0.57708578       3.16521962       0.06725113        6 
C      -0.79591932       3.04911381       0.27683012        6 
C      -1.39379999       1.79423659       0.26374274        6 
H      -3.06432081      -2.38988505      -1.03026049        1 
H       2.05128886      -3.00737702       0.18489671        1 
H      -1.40095656       3.93406942       0.43580834        1 
H      -3.08625261      -2.50600929       0.74472189        1 
H      -4.38099091      -1.60356227      -0.10341245        1 
H       2.81252181      -2.60148199       1.75519641        1 
H       3.60724695      -2.13436548       0.21734979        1 
H       1.04692122       4.14202920       0.06172196        1 
H      -2.46217197       1.69371524       0.39839138        1 
H       2.41737924       2.11173049      -0.30701145        1 
