24
Lattice="0.0 0.0 0.0 0.0 0.0 0.0 0.0 0.0 0.0" Properties=species:S:1:pos:R:3:Z:I:1 pbc="F F F"
C       0.90246297      -0.70218212      -0.05016610        6 
C       0.68795931       0.68536738      -0.10847054        6 
C      -0.19085441      -1.71974846       0.02768281        6 
C      -0.66241356       1.31010550      -0.33416121        6 
O      -1.40254076      -1.20452079      -0.24732030        8 
O      -0.01770650      -2.87659235       0.33632526        8 
O      -1.23167477       1.67776225       0.82849789        8 
O      -1.14927576       1.49850348      -1.41924549        8 
C      -2.54160163       2.26929269       0.72557055        6 
C      -2.52093925      -2.10431392      -0.15657207        6 
C       2.21054186      -1.19015314       0.05152895        6 
C       3.29485135      -0.32324897       0.07642389        6 
C       3.07862782       1.05285588       0.02440337        6 
C       1.78240827       1.55094909      -0.06795101        6 
H      -2.50425597       3.18118030       0.12805842        1 
H      -2.39956888      -2.93358843      -0.85455049        1 
H       3.91706899       1.73922674       0.05262185        1 
H      -3.23603079       1.56525919       0.26432390        1 
H      -2.84030294       2.49053991       1.74762002        1 
H      -3.39128314      -1.50779517      -0.42065587        1 
H      -2.61243104      -2.49603777       0.85763826        1 
H       4.30191093      -0.71736751       0.14479116        1 
H       1.61454802       2.62046201      -0.11767633        1 
H       2.34976942      -2.26171010       0.11988006        1 
