24
Lattice="0.0 0.0 0.0 0.0 0.0 0.0 0.0 0.0 0.0" Properties=species:S:1:pos:R:3:Z:I:1 pbc="F F F"
C       0.71993154      -0.76126138       0.16697338        6 
C      -0.64530347      -0.59909955      -0.12071180        6 
C       1.64473247       0.40345259       0.39211348        6 
C      -1.26373793       0.75760089      -0.04500651        6 
O       2.02767061       0.93834224      -0.77519095        8 
O       2.05642128       0.74240834       1.47411182        8 
O      -2.59654959       0.68880660       0.16001037        8 
O      -0.66974388       1.80317073      -0.17098154        8 
C      -3.28921846       1.94855546       0.22933906        6 
C       2.82657908       2.13323546      -0.68822353        6 
C       1.26640230      -2.04355182       0.22004778        6 
C       0.47356900      -3.16094726      -0.03006901        6 
C      -0.87895243      -3.00411255      -0.32722473        6 
C      -1.43787075      -1.73128732      -0.35003386        6 
H      -2.89307315       2.55500158       1.04481311        1 
H       2.25274818       2.92018403      -0.19681842        1 
H      -1.49979914      -3.87084740      -0.52256999        1 
H      -3.18355730       2.49451942      -0.70947888        1 
H      -4.33100999       1.69424655       0.41114530        1 
H       3.04874029       2.40661949      -1.71705484        1 
H       3.74503579       1.94388245      -0.13075454        1 
H       0.91238186      -4.15157050       0.00785948        1 
H      -2.49472581      -1.60227558      -0.54126519        1 
H       2.31751780      -2.16331797       0.45449966        1 
