24
Lattice="0.0 0.0 0.0 0.0 0.0 0.0 0.0 0.0 0.0" Properties=species:S:1:pos:R:3:Z:I:1 pbc="F F F"
C       0.74394226      -0.67757481      -0.18086613        6 
C       0.77879899       0.68860532       0.17264739        6 
C      -0.47940922      -1.54594050      -0.15392439        6 
C      -0.38744786       1.62796109       0.07032453        6 
O      -1.31728579      -1.20339612       0.84144051        8 
O      -0.62199196      -2.53659318      -0.83248826        8 
O      -1.44487669       1.08420822      -0.55895751        8 
O      -0.33885190       2.79648716       0.38170864        8 
C      -2.57569767       1.94779166      -0.76527186        6 
C      -2.51584074      -1.98898998       0.95485610        6 
C       1.94303824      -1.37018279      -0.36223067        6 
C       3.16934000      -0.74153859      -0.16614403        6 
C       3.20532715       0.59246019       0.23011086        6 
C       2.01766213       1.30322486       0.37474550        6 
H      -2.97276133       2.28979518       0.19189325        1 
H      -3.12140484      -1.88406384       0.05256613        1 
H       4.15405564       1.08795360       0.40018217        1 
H      -2.29213642       2.81273035      -1.36649587        1 
H      -3.30944286       1.33974019      -1.28994182        1 
H      -3.04315827      -1.58831552       1.81769416        1 
H      -2.27466943      -3.04222405       1.10483380        1 
H       4.08890718      -1.29763649      -0.30772960        1 
H       2.02838022       2.35909308       0.61357320        1 
H       1.89381102      -2.41801218      -0.63126325        1 
