24
Lattice="0.0 0.0 0.0 0.0 0.0 0.0 0.0 0.0 0.0" Properties=species:S:1:pos:R:3:Z:I:1 pbc="F F F"
C       0.85144434      -0.69164395       0.07740676        6 
C       0.73818987       0.69419230      -0.13122868        6 
C      -0.29722681      -1.64909842       0.04504466        6 
C      -0.57430573       1.41478892      -0.25192630        6 
O      -1.44007005      -1.07803285      -0.38017363        8 
O      -0.20643757      -2.82579153       0.31039617        8 
O      -1.22934736       1.42386248       0.92372544        8 
O      -0.95765475       1.97521336      -1.24802417        8 
C      -2.52780023       2.04392613       0.91321901        6 
C      -2.58889080      -1.93816156      -0.47651005        6 
C       2.12145995      -1.25851779       0.23080752        6 
C       3.26444510      -0.47079972       0.17548769        6 
C       3.14966359       0.89868872      -0.05577386        6 
C       1.89182078       1.47497955      -0.21094049        6 
H      -2.45281176       3.08929952       0.61069309        1 
H      -2.38720482      -2.76795632      -1.15491290        1 
H       4.03640230       1.51900226      -0.11567795        1 
H      -3.18973224       1.51709288       0.22334003        1 
H      -2.89543126       1.96432558       1.93374596        1 
H      -3.38649601      -1.31004404      -0.86687693        1 
H      -2.85232356      -2.33150405       0.50655828        1 
H       4.24034854      -0.92578922       0.29760282        1 
H       1.79571804       2.53925994      -0.39004365        1 
H       2.18765142      -2.32898235       0.37987536        1 
