24
Lattice="0.0 0.0 0.0 0.0 0.0 0.0 0.0 0.0 0.0" Properties=species:S:1:pos:R:3:Z:I:1 pbc="F F F"
C       0.75878544      -0.67963504       0.15906923        6 
C       0.81146756       0.69992357      -0.11861956        6 
C      -0.50181185      -1.49098017       0.18391502        6 
C      -0.37022405       1.61690479      -0.05779200        6 
O      -1.27429222      -1.23137346      -0.88844223        8 
O      -0.74156366      -2.35547269       0.99207292        8 
O      -1.41068724       1.07154914       0.60090339        8 
O      -0.36463184       2.75852422      -0.45703366        8 
C      -2.58773458       1.88770885       0.72475187        6 
C      -2.52040297      -1.94619851      -0.95544849        6 
C       1.94544308      -1.40207469       0.29244480        6 
C       3.17858755      -0.77982482       0.11881170        6 
C       3.23244448       0.57676816      -0.19269210        6 
C       2.05544539       1.31165275      -0.29474434        6 
H      -2.35358276       2.82237919       1.23584909        1 
H      -2.34624457      -3.02271444      -0.98720925        1 
H       4.18814584       1.06684359      -0.33718414        1 
H      -2.99959415       2.10983504      -0.26124164        1 
H      -3.28822255       1.29512552       1.30906782        1 
H      -2.99838514      -1.60826941      -1.87219161        1 
H      -3.13971691      -1.70862660      -0.08841916        1 
H       4.09128089      -1.35589522       0.21864937        1 
H       2.07903732       2.37618730      -0.49097261        1 
H       1.88650402      -2.46081713       0.51373680        1 
