24
Lattice="0.0 0.0 0.0 0.0 0.0 0.0 0.0 0.0 0.0" Properties=species:S:1:pos:R:3:Z:I:1 pbc="F F F"
C       0.76553100      -0.68200390       0.15028516        6 
C       0.80085696       0.69954396      -0.12071056        6 
C      -0.48303790      -1.51065638       0.15125391        6 
C      -0.39523081       1.59773282      -0.06347510        6 
O      -1.29530721      -1.18261913      -0.87216149        8 
O      -0.68571195      -2.43865858       0.89736935        8 
O      -1.38967213       1.07592362       0.68043282        8 
O      -0.43258475       2.71099872      -0.53406227        8 
C      -2.58372002       1.86851759       0.79493667        6 
C      -2.53354049      -1.90946664      -0.95305037        6 
C       1.96171425      -1.38798456       0.28715593        6 
C       3.18676423      -0.74659738       0.12630832        6 
C       3.22293392       0.61166710      -0.18021355        6 
C       2.03589639       1.32997202      -0.28914021        6 
H      -2.35885395       2.83792167       1.24149131        1 
H      -2.34646587      -2.97933607      -1.05485548        1 
H       4.17240941       1.11601679      -0.31659501        1 
H      -3.03254820       2.02078886      -0.18815376        1 
H      -3.24908304       1.29498509       1.43651245        1 
H      -3.03854395      -1.52237154      -1.83522068        1 
H      -3.13350150      -1.73337301      -0.05811143        1 
H       4.10713143      -1.30966590       0.22966786        1 
H       2.04580805       2.39482435      -0.48504412        1 
H       1.91549043      -2.44913090       0.49945377        1 
