32
Lattice="0.0 0.0 0.0 0.0 0.0 0.0 0.0 0.0 0.0" Properties=species:S:1:pos:R:3:Z:I:1 pbc="F F F"
C      -0.73828816       0.67444279       0.63668939        6 
C       0.81098502       0.43774662       0.83346245        6 
C      -1.53914698      -0.43553586      -0.00018801        6 
C       1.24017594      -0.99162523       0.48984218        6 
O      -2.83285665      -0.35928378       0.38956011        8 
O      -1.13545408      -1.25588965      -0.78731409        8 
O       2.02570052      -1.07520793      -0.59636445        8 
O       0.95012612      -1.94541298       1.17198223        8 
C       2.36395331      -2.40830265      -1.02174359        6 
C      -3.72486026      -1.32692978      -0.19409673        6 
C      -0.78173728       1.96222574      -0.29489678        6 
C      -0.24327889       1.55323220      -1.65599897        6 
C       1.06622905       1.33201405      -1.51560571        6 
C       1.42637142       1.58869306      -0.05992742        6 
C       0.43394736       2.73855108       0.24916519        6 
C       1.19710779       0.62288067       2.31878008        6 
H       2.91840425      -2.93272305      -0.24229121        1 
H      -3.40943230      -2.33875349       0.06461545        1 
H       1.74673030       0.93511204      -2.25357251        1 
H       2.97761575      -2.28129308      -1.91130408        1 
H       1.45314602      -2.96065242      -1.25629214        1 
H      -4.70355286      -1.11028220       0.22853056        1 
H      -3.74437810      -1.22394185      -1.28033220        1 
H       2.48102346       1.76486109       0.14777613        1 
H      -1.75180638       2.45702453      -0.27913398        1 
H       0.88542653       1.59665521       2.69668636        1 
H       0.73063625      -0.15361677       2.92585696        1 
H       2.28090770       0.54297082       2.44143981        1 
H       0.64503170       3.63383318      -0.33761269        1 
H       0.35403345       3.00704581       1.30372737        1 
H      -0.85005528       1.35955060      -2.53026945        1 
H      -1.20353567       0.91370217       1.59322336        1 
