32
Lattice="0.0 0.0 0.0 0.0 0.0 0.0 0.0 0.0 0.0" Properties=species:S:1:pos:R:3:Z:I:1 pbc="F F F"
C       0.00209371       1.21095523       0.44347862        6 
C       0.66987805      -0.17072262       0.89995850        6 
C      -1.30056697       1.12143476      -0.32065573        6 
C      -0.06340973      -1.41397374       0.37625257        6 
O      -2.31286941       0.82570547       0.51556158        8 
O      -1.45213730       1.35031110      -1.49767305        8 
O       0.60170655      -2.07475289      -0.58980105        8 
O      -1.10833151      -1.81694283       0.83010529        8 
C      -0.04006254      -3.25459355      -1.10801248        6 
C      -3.60474830       0.62697004      -0.08311543        6 
C       1.15231581       1.95537327      -0.29833745        6 
C       1.48879077       1.18743128      -1.56522542        6 
C       2.08454838       0.05226238      -1.19411181        6 
C       2.13794344       0.02931189       0.32976757        6 
C       2.34536741       1.54047843       0.59311790        6 
C       0.65773165      -0.30557464       2.43427757        6 
H      -0.21559888      -3.97695227      -0.30980134        1 
H      -3.57729739      -0.22756870      -0.76102824        1 
H       2.38642090      -0.76624962      -1.82937338        1 
H       0.64927066      -3.65639388      -1.84756049        1 
H      -0.99159079      -2.99414993      -1.57365853        1 
H      -4.27977592       0.42781100       0.74601690        1 
H      -3.91615866       1.51723540      -0.63154026        1 
H       2.85444651      -0.66235118       0.77232691        1 
H       0.95831062       3.02065726      -0.41842259        1 
H       1.15603214       0.54159564       2.90699275        1 
H      -0.37004098      -0.35663626       2.79478466        1 
H       1.17296212      -1.21964557       2.74310915        1 
H       3.29908285       1.89868979       0.20353635        1 
H       2.24422337       1.84048096       1.63838363        1 
H       1.19327572       1.48426925      -2.56072464        1 
H      -0.24321878       1.75308035       1.36072916        1 
