32
Lattice="0.0 0.0 0.0 0.0 0.0 0.0 0.0 0.0 0.0" Properties=species:S:1:pos:R:3:Z:I:1 pbc="F F F"
C      -0.71311969      -0.11666996      -0.91011954        6 
C       0.52708540      -1.01623019      -0.45257670        6 
C      -0.69193191       1.35790626      -0.53467989        6 
C       1.54533514      -0.28801822       0.43626503        6 
O      -1.86940880       1.76345362      -0.01197461        8 
O       0.22092261       2.11831887      -0.74855105        8 
O       2.42956513       0.41038504      -0.29241365        8 
O       1.60576873      -0.36612350       1.64128683        8 
C       3.35403426       1.22947325       0.44069395        6 
C      -1.96932802       3.16203160       0.31102209        6 
C      -1.94984178      -0.92253761      -0.36682468        6 
C      -1.91209238      -0.84245925       1.15373690        6 
C      -0.87687467      -1.57832857       1.56687901        6 
C      -0.21215809      -2.17107622       0.32975954        6 
C      -1.46048220      -2.37111145      -0.56504992        6 
C       1.27410882      -1.57143030      -1.68476354        6 
H       2.80999859       1.95805488       1.04312943        1 
H      -1.81469370       3.77229844      -0.58015439        1 
H      -0.49277929      -1.67243188       2.57079527        1 
H       3.95324995       1.73346550      -0.31409631        1 
H       3.98225462       0.61650451       1.08919448        1 
H      -2.97652458       3.29711428       0.69926984        1 
H      -1.22793557       3.43221132       1.06433082        1 
H       0.43086417      -3.03440151       0.50001546        1 
H      -2.88679838      -0.64024468      -0.84343258        1 
H       0.60057428      -2.14157561      -2.32541048        1 
H       1.70605838      -0.76277261      -2.27312968        1 
H       2.08606267      -2.23537024      -1.37499937        1 
H      -2.15393384      -3.10077095      -0.14513713        1 
H      -1.24624942      -2.63437750      -1.60251415        1 
H      -2.55083534      -0.20726764       1.74998925        1 
H      -0.72660973      -0.11142415      -2.00523360        1 
