32
Lattice="0.0 0.0 0.0 0.0 0.0 0.0 0.0 0.0 0.0" Properties=species:S:1:pos:R:3:Z:I:1 pbc="F F F"
C      -0.78481803       0.54881702      -0.85261627        6 
C      -0.45823650      -0.95497310      -0.46474754        6 
C       0.18300511       1.69465701      -0.64660393        6 
C       0.83468834      -1.18756406       0.33381290        6 
O       1.15234833       1.45568261       0.24816604        8 
O       0.06237298       2.74924083      -1.22790841        8 
O       1.86729756      -1.48430982      -0.48917121        8 
O       0.96978075      -1.09768132       1.52723346        8 
C       3.14767767      -1.63866828       0.14275389        6 
C       2.06688871       2.53469127       0.51035142        6 
C      -2.16478807       0.83285333      -0.12944760        6 
C      -1.91301079       0.81867498       1.36736348        6 
C      -1.64951099      -0.44522781       1.71290672        6 
C      -1.71870514      -1.29481629       0.44760986        6 
C      -2.84104997      -0.54090660      -0.30656605        6 
C      -0.44825863      -1.83780406      -1.72935802        6 
H       3.42775070      -0.71866975       0.65827787        1 
H       1.52724944       3.41236429       0.86802411        1 
H      -1.33554047      -0.80951814       2.67852903        1 
H       3.84552755      -1.85515163      -0.66355207        1 
H       3.12601501      -2.45903084       0.86195348        1 
H       2.74027211       2.15900774       1.27758124        1 
H       2.61667518       2.79551179      -0.39536821        1 
H      -1.84607880      -2.36721750       0.59673367        1 
H      -2.66755532       1.70720927      -0.53899885        1 
H      -1.39553430      -1.76216860      -2.26441057        1 
H       0.35070339      -1.54315764      -2.41006988        1 
H      -0.29289490      -2.88775683      -1.46809870        1 
H      -3.79754751      -0.60083703       0.21431500        1 
H      -2.97727503      -0.83790999      -1.34782460        1 
H      -1.85175479       1.69807297       1.99436918        1 
H      -0.97543303       0.57346233      -1.92880158        1 
