32
Lattice="0.0 0.0 0.0 0.0 0.0 0.0 0.0 0.0 0.0" Properties=species:S:1:pos:R:3:Z:I:1 pbc="F F F"
C      -0.85132678      -0.41575508      -0.50602941        6 
C       0.69996855      -0.31261969      -0.69029520        6 
C      -1.70082341       0.80788190      -0.23351807        6 
C       1.41539667       0.71788467       0.18940056        6 
O      -3.00839595       0.42442101      -0.21387551        8 
O      -1.35632073       1.94710479      -0.06896072        8 
O       2.69986510       0.87662847      -0.22944748        8 
O       0.97947589       1.28101120       1.15670175        8 
C       3.50351535       1.76846235       0.56105998        6 
C      -3.96652557       1.47100411       0.01588032        6 
C      -1.07762021      -1.72962086       0.32701199        6 
C      -0.35627094      -1.61875496       1.65938654        6 
C       0.95677153      -1.66722712       1.41395628        6 
C       1.13622278      -1.75133853      -0.09642243        6 
C      -0.08330433      -2.63088277      -0.44671944        6 
C       1.08091643      -0.15971755      -2.16983739        6 
H       3.08246151       2.77503846       0.54731853        1 
H      -3.92440390       2.21390155      -0.78291457        1 
H       1.75891104      -1.51759363       2.12401361        1 
H       4.48867697       1.75858633       0.09911162        1 
H       3.55930100       1.42101212       1.59423336        1 
H      -4.93710741       0.97899455       0.02655538        1 
H      -3.77564109       1.96356512       0.97064932        1 
H       2.11497513      -2.06502847      -0.45606506        1 
H      -2.12110820      -2.03472220       0.35656621        1 
H       0.63224200      -0.96111430      -2.76169559        1 
H       0.71678396       0.79405476      -2.56279302        1 
H       2.16098212      -0.19053515      -2.30535716        1 
H       0.00128013      -3.63082023      -0.01915593        1 
H      -0.29735373      -2.70826469      -1.51551624        1 
H      -0.83801654      -1.43200447       2.60955165        1 
H      -1.22464215      -0.68872149      -1.50194585        1 
