32
Lattice="0.0 0.0 0.0 0.0 0.0 0.0 0.0 0.0 0.0" Properties=species:S:1:pos:R:3:Z:I:1 pbc="F F F"
C       0.25722559      -0.92164869       0.69081226        6 
C      -1.07802279      -0.08845187       0.70589355        6 
C       1.56017223      -0.15697912       0.72356257        6 
C      -1.04164870       1.33459316       0.13979954        6 
O       2.51985462      -0.77020822      -0.00277311        8 
O       1.74721798       0.85916340       1.34680931        8 
O      -0.00907372       1.56973908      -0.68546328        8 
O      -1.92484597       2.13934540       0.32885306        8 
C       0.01405827       2.85441881      -1.32783155        6 
C       3.80849190      -0.12862032      -0.00503112        6 
C       0.02075537      -2.03540546      -0.38420961        6 
C      -0.18827051      -1.37900280      -1.73753325        6 
C      -1.37131033      -0.75796416      -1.70593252        6 
C      -1.95960465      -0.96060472      -0.31719825        6 
C      -1.44454357      -2.38692308      -0.02696638        6 
C      -1.71663902      -0.03766345       2.09979908        6 
H      -0.87284451       2.98489677      -1.95084394        1 
H       4.21448802      -0.08111238       1.00662333        1 
H      -1.79234562      -0.11123427      -2.46459802        1 
H       0.91430012       2.85528673      -1.93866700        1 
H       0.05318190       3.65140032      -0.58452478        1 
H       4.43837110      -0.74438235      -0.64341986        1 
H       3.72597174       0.88322725      -0.40462918        1 
H      -3.02496303      -0.76488885      -0.20602169        1 
H       0.75490554      -2.83743962      -0.34315304        1 
H      -1.90248531      -1.04533129       2.47756075        1 
H      -1.05265099       0.47351327       2.80143681        1 
H      -2.66064131       0.50589881       2.06705096        1 
H      -1.87669747      -3.12370372      -0.70579084        1 
H      -1.58193008      -2.71740162       1.00541110        1 
H       0.55069244      -1.34459690      -2.52634577        1 
H       0.28261225      -1.44428143       1.65608364        1 
