32
Lattice="0.0 0.0 0.0 0.0 0.0 0.0 0.0 0.0 0.0" Properties=species:S:1:pos:R:3:Z:I:1 pbc="F F F"
C       0.65819088      -0.92083156      -0.75209193        6 
C       0.64277230       0.67048778      -0.77231224        6 
C      -0.50326175      -1.75563797      -0.23372283        6 
C      -0.70089611       1.34454005      -0.45660097        6 
O      -1.66351321      -1.09572164      -0.12514851        8 
O      -0.37884289      -2.92452270       0.05155751        8 
O      -0.77705305       1.82218597       0.80214422        8 
O      -1.59330198       1.48050356      -1.25683390        8 
C      -2.02990867       2.42600775       1.16593599        6 
C      -2.79755485      -1.85324095       0.33430019        6 
C       1.92090970      -1.24527295       0.14184790        6 
C       1.51947837      -0.87201440       1.56438609        6 
C       1.44549712       0.46093011       1.61587159        6 
C       1.81079632       1.00037806       0.23660675        6 
C       2.85520363      -0.06533936      -0.18426853        6 
C       0.98425938       1.16569446      -2.19969725        6 
H      -2.24474642       3.28371912       0.52665893        1 
H      -2.62854919      -2.21188887       1.35080749        1 
H       1.10366568       1.07005468       2.43884906        1 
H      -1.91229535       2.73815125       2.20153861        1 
H      -2.83836775       1.69921540       1.07229132        1 
H      -3.63601176      -1.16110242       0.30150422        1 
H      -2.97771279      -2.70530132      -0.32233633        1 
H       2.11411975       2.04609211       0.19835411        1 
H       2.29444162      -2.25490100      -0.00894453        1 
H       1.89654792       0.70975668      -2.58207930        1 
H       0.16627115       0.92768957      -2.87987912        1 
H       1.11824403       2.25111156      -2.20725481        1 
H       3.73459922      -0.05416118       0.46052249        1 
H       3.17205696      -0.01447856      -1.22628518        1 
H       1.24271358      -1.58258739       2.33130037        1 
H       0.82340210      -1.27639596      -1.77395737        1 
