32
Lattice="0.0 0.0 0.0 0.0 0.0 0.0 0.0 0.0 0.0" Properties=species:S:1:pos:R:3:Z:I:1 pbc="F F F"
C      -0.52076153       1.07381563       0.47420676        6 
C       0.67913689       0.09588052       0.83814346        6 
C      -1.67522244       0.45259617      -0.28171896        6 
C       0.53829226      -1.29243293       0.21956591        6 
O      -2.67496072       0.13152710       0.56434386        8 
O      -1.72985928       0.28047903      -1.47553725        8 
O       1.68645797      -1.74270145      -0.32143689        8 
O      -0.45724098      -1.97214195       0.30227963        8 
C       1.64400161      -3.07286695      -0.87302528        6 
C      -3.77251831      -0.60079067      -0.00914905        6 
C       0.19589594       2.24023646      -0.28513282        6 
C       0.80347783       1.68429171      -1.56429386        6 
C       1.84228543       0.92011051      -1.21709221        6 
C       1.92128435       0.91819610       0.30287531        6 
C       1.46274349       2.36594202       0.58965987        6 
C       0.75225879      -0.15162750       2.35928535        6 
H       1.40158892      -3.80054580      -0.09712019        1 
H      -3.41235814      -1.54567096      -0.41825820        1 
H       2.44672033       0.30078458      -1.86351735        1 
H       2.64041714      -3.25252754      -1.27075184        1 
H       0.89645332      -3.12854752      -1.66542049        1 
H      -4.46376395      -0.77750905       0.81217335        1 
H      -4.25318756      -0.02000485      -0.79804456        1 
H       2.86400014       0.59089939       0.73818403        1 
H      -0.43147603       3.12460333      -0.39442358        1 
H       0.88335105       0.78842797       2.89805501        1 
H      -0.16482799      -0.62883657       2.71040683        1 
H       1.59662761      -0.80281634       2.60307509        1 
H       2.16690008       3.10500229       0.20498344        1 
H       1.25173937       2.57401207       1.64164274        1 
H       0.38455114       1.81768305      -2.55069917        1 
H      -0.93076191       1.45624287       1.41027879        1 
