32
Lattice="0.0 0.0 0.0 0.0 0.0 0.0 0.0 0.0 0.0" Properties=species:S:1:pos:R:3:Z:I:1 pbc="F F F"
C      -0.68713986       0.29333686       0.86022516        6 
C       0.78600193       0.79044687       0.48959413        6 
C      -1.13384670      -1.11864719       0.51069751        6 
C       1.66481567      -0.11005296      -0.38729478        6 
O      -2.39853658      -1.12194524       0.02106453        8 
O      -0.51473807      -2.13444187       0.70087252        8 
O       2.01474290      -1.24095446       0.23780991        8 
O       2.10732835       0.20774068      -1.46805649        8 
C       2.82334395      -2.16514463      -0.50747857        6 
C      -2.95726713      -2.41586559      -0.26626809        6 
C      -1.59735466       1.42845300       0.26655244        6 
C      -1.46834681       1.35211281      -1.24827161        6 
C      -0.24120489       1.77347595      -1.56721052        6 
C       0.46939190       2.13529019      -0.26981259        6 
C      -0.72708732       2.66928589       0.54852824        6 
C       1.60026844       1.04241127       1.78019754        6 
H       2.31459894      -2.45436885      -1.42823152        1 
H      -2.97563145      -3.03330943       0.63314825        1 
H       0.23054915       1.76481728      -2.53818584        1 
H       2.94804787      -3.02721079       0.14362451        1 
H       3.78896857      -1.72017296      -0.75407150        1 
H      -3.96766256      -2.22276524      -0.62050236        1 
H      -2.37145767      -2.92250665      -1.03489742        1 
H       1.34492531       2.77482556      -0.36896532        1 
H      -2.60946666       1.41946177       0.66502544        1 
H       1.08952315       1.75335675       2.43097397        1 
H       1.74255788       0.11050698       2.32830896        1 
H       2.58563219       1.45207401       1.54017149        1 
H      -1.14979559       3.57728729       0.11582181        1 
H      -0.51923340       2.83686947       1.60745821        1 
H      -2.21414797       0.92759672      -1.90548412        1 
H      -0.76019719       0.31822264       1.95373488        1 
