32
Lattice="0.0 0.0 0.0 0.0 0.0 0.0 0.0 0.0 0.0" Properties=species:S:1:pos:R:3:Z:I:1 pbc="F F F"
C      -0.74602274       0.40592929       0.88836992        6 
C       0.75704616       0.74748238       0.50690741        6 
C      -1.16344752      -1.02231662       0.61660769        6 
C       1.39723353      -0.35285142      -0.34865849        6 
O      -2.33191747      -1.11103833      -0.04382594        8 
O      -0.54321309      -1.98463064       1.00593917        8 
O       2.56380914      -0.79303521       0.16054862        8 
O       0.94115341      -0.77963411      -1.38299651        8 
C       3.18715437      -1.87623118      -0.55289927        6 
C      -2.79013239      -2.44442968      -0.33857847        6 
C      -1.57795057       1.55774116       0.22254570        6 
C      -1.46142729       1.42063672      -1.28560379        6 
C      -0.20697037       1.73202829      -1.62079307        6 
C       0.53940120       2.07927398      -0.34199158        6 
C      -0.61224115       2.74065758       0.45556860        6 
C       1.59348057       1.02502792       1.76747232        6 
H       2.52020359      -2.73901257      -0.57816850        1 
H      -2.94390338      -3.00816687       0.58276114        1 
H       0.25076504       1.63271161      -2.59440069        1 
H       4.09258211      -2.10562925       0.00481319        1 
H       3.42795759      -1.57574134      -1.57368675        1 
H      -3.72970313      -2.31565568      -0.87162424        1 
H      -2.06052937      -2.96171408      -0.96262368        1 
H       1.46331098       2.64591408      -0.45833476        1 
H      -2.58633325       1.64435835       0.62403566        1 
H       1.13063407       1.80454855       2.37360537        1 
H       1.67956448       0.12461238       2.37761159        1 
H       2.60222623       1.34901954       1.50588870        1 
H      -0.96041021       3.65965923      -0.01753621        1 
H      -0.38738671       2.93414538       1.50591182        1 
H      -2.23086694       1.01676751      -1.92747962        1 
H      -0.82691013       0.49973512       1.97608799        1 
