32
Lattice="0.0 0.0 0.0 0.0 0.0 0.0 0.0 0.0 0.0" Properties=species:S:1:pos:R:3:Z:I:1 pbc="F F F"
C       0.74945160      -0.53031104       0.62117674        6 
C      -0.82120378      -0.30826179       0.65111236        6 
C       1.67194609       0.45441844      -0.06448187        6 
C      -1.37000196       0.82156332      -0.23726117        6 
O       2.78747421       0.62356185       0.69949760        8 
O       1.53051583       0.99365807      -1.13017724        8 
O      -2.02328898       1.76202908       0.49260891        8 
O      -1.25482476       0.91041078      -1.43049430        8 
C      -2.56763543       2.86027148      -0.25945156        6 
C       3.80816035       1.46181194       0.13046605        6 
C       0.90950342      -1.98871295       0.01528847        6 
C       0.43382037      -1.96016323      -1.42256282        6 
C      -0.89200114      -1.79793676      -1.39822547        6 
C      -1.32097957      -1.71052399       0.05844057        6 
C      -0.29463001      -2.68067576       0.68706853        6 
C      -1.29149758      -0.13870144       2.10808612        6 
H      -1.77424753       3.38978858      -0.78904169        1 
H       3.42140505       2.46562416      -0.05241287        1 
H      -1.54282794      -1.62861669      -2.24282640        1 
H      -3.04159529       3.50777028       0.47543458        1 
H      -3.29983744       2.50144445      -0.98495267        1 
H       4.60877287       1.48678935       0.86660382        1 
H       4.16623080       1.04334270      -0.81209682        1 
H      -2.37631462      -1.89102114       0.26360869        1 
H       1.89853636      -2.40631388       0.20056014        1 
H      -0.95952428      -0.97762405       2.72055085        1 
H      -0.89208067       0.77770545       2.54580819        1 
H      -2.37960245      -0.08375604       2.16438453        1 
H      -0.43109227      -3.70253870       0.33105437        1 
H      -0.26186051      -2.67625183       1.77760688        1 
H       1.07807532      -1.93860116      -2.29022448        1 
H       1.08434686      -0.57227690       1.65775554        1 
