32
Lattice="0.0 0.0 0.0 0.0 0.0 0.0 0.0 0.0 0.0" Properties=species:S:1:pos:R:3:Z:I:1 pbc="F F F"
C       0.87315410      -0.77638338      -0.69961030        6 
C       0.63427127       0.79186121      -0.71223328        6 
C      -0.25290678      -1.75911502      -0.46862505        6 
C      -0.83045332       1.20041469      -0.51720631        6 
O      -1.26557909      -1.27040330       0.27000863        8 
O      -0.20516492      -2.90644136      -0.84751680        8 
O      -1.11590547       1.66917474       0.70979077        8 
O      -1.64245980       1.18759537      -1.41256273        8 
C      -2.49229721       2.01378737       0.93889981        6 
C      -2.35236273      -2.17467447       0.53849700        6 
C       1.98827235      -0.96198718       0.40950463        6 
C       1.37624258      -0.60920811       1.75468744        6 
C       1.17289817       0.71078657       1.76535899        6 
C       1.63697194       1.26230299       0.42259834        6 
C       2.82928688       0.30743783       0.15794461        6 
C       1.03719760       1.37636263      -2.08392745        6 
H      -2.80254892       2.82471591       0.27823284        1 
H      -1.99282693      -3.05566090       1.07156280        1 
H       0.67481353       1.29145197       2.52660782        1 
H      -2.54513871       2.32435755       1.98032104        1 
H      -3.12970538       1.14607045       0.76228011        1 
H      -3.05176928      -1.61263089       1.15347973        1 
H      -2.82464697      -2.48448358      -0.39468144        1 
H       1.83403153       2.33325867       0.38777305        1 
H       2.48568369      -1.92771323       0.33480628        1 
H       2.06302752       1.11446693      -2.34292590        1 
H       0.37411061       1.00078062      -2.86347031        1 
H       0.95702689       2.46688356      -2.07374106        1 
H       3.62374815       0.42584534       0.89551267        1 
H       3.25239310       0.36641838      -0.84584349        1 
H       1.07125999      -1.32801756       2.50356513        1 
H       1.30087938      -1.07193340      -1.65908984        1 
