32
Lattice="0.0 0.0 0.0 0.0 0.0 0.0 0.0 0.0 0.0" Properties=species:S:1:pos:R:3:Z:I:1 pbc="F F F"
C      -0.64665586      -0.95304939       0.66885472        6 
C      -0.84634705       0.62543732       0.68644815        6 
C       0.72191537      -1.59916662       0.61917707        6 
C       0.40906259       1.49343070       0.47718553        6 
O       1.55584638      -1.06511171      -0.28943753        8 
O       1.01734967      -2.55258069       1.30372180        8 
O       0.84526185       1.54734742      -0.79014215        8 
O       0.89932826       2.16980452       1.35318960        8 
C       2.01700907       2.34143405      -1.02621994        6 
C       2.84778569      -1.68674204      -0.41009965        6 
C      -1.60757620      -1.43710995      -0.49196819        6 
C      -1.08813005      -0.90662921      -1.81478312        6 
C      -1.28453233       0.41439619      -1.81718714        6 
C      -1.91791370       0.79293181      -0.48691527        6 
C      -2.78890394      -0.47039090      -0.26201571        6 
C      -1.45021523       1.05544283       2.03646802        6 
H       1.84655744       3.37990822      -0.73831077        1 
H       2.74290230      -2.73794619      -0.68223679        1 
H      -0.96722691       1.12077496      -2.56921278        1 
H       2.20611422       2.26449363      -2.09523554        1 
H       2.86233799       1.94760002      -0.45924831        1 
H       3.35836963      -1.13589361      -1.19732644        1 
H       3.39655809      -1.61334993       0.53003779        1 
H      -2.41948740       1.76007386      -0.45119680        1 
H      -1.81269016      -2.50587044      -0.43794551        1 
H      -2.35705267       0.49221321       2.25716903        1 
H      -0.73807064       0.89281084       2.84606230        1 
H      -1.69873317       2.11857727       2.02615694        1 
H      -3.56036442      -0.57475800      -1.02588816        1 
H      -3.24240132      -0.54743644       0.72699092        1 
H      -0.56823201      -1.49427787      -2.55886601        1 
H      -1.05902904      -1.33664290       1.60289350        1 
