32
Lattice="0.0 0.0 0.0 0.0 0.0 0.0 0.0 0.0 0.0" Properties=species:S:1:pos:R:3:Z:I:1 pbc="F F F"
C       0.75495652      -0.89638308       0.72107267        6 
C      -0.75381526      -0.41194143       0.73352002        6 
C       1.82198301       0.17313670       0.59916234        6 
C      -0.96993412       0.99903656       0.18922815        6 
O       2.14295013       0.44959022      -0.67971005        8 
O       2.34414628       0.70223605       1.55005143        8 
O      -2.19646756       1.11728783      -0.36780266        8 
O      -0.22137383       1.93518673       0.32155996        8 
C      -2.55843365       2.43153344      -0.82811230        6 
C       3.03229022       1.56285570      -0.87490211        6 
C       0.74680702      -2.06429214      -0.32382121        6 
C       0.33547820      -1.51845170      -1.68148460        6 
C      -0.96180025      -1.20565623      -1.61544777        6 
C      -1.43188266      -1.50360372      -0.19796361        6 
C      -0.57183101      -2.74999210       0.10663568        6 
C      -1.33024972      -0.41186872       2.16237113        6 
H      -2.52666371       3.14719078      -0.00525728        1 
H       3.98673769       1.38688896      -0.37662756        1 
H      -1.56150755      -0.71568226      -2.36964011        1 
H      -3.57074653       2.33419673      -1.21451781        1 
H      -1.87740565       2.76009091      -1.61493622        1 
H       3.16943812       1.63933773      -1.95176172        1 
H       2.57497220       2.47028998      -0.47828819        1 
H      -2.50731296      -1.58162920      -0.05043548        1 
H       1.65605694      -2.66395136      -0.30071333        1 
H      -1.27151034      -1.41325663       2.59389399        1 
H      -0.76840933       0.27057471       2.80409742        1 
H      -2.37906277      -0.10450230       2.15645234        1 
H      -0.83586490      -3.59601667      -0.53025784        1 
H      -0.58334677      -3.06560205       1.15312682        1 
H       1.01433544      -1.33773938      -2.50210695        1 
H       0.94954336      -1.33375315       1.70209682        1 
