32
Lattice="0.0 0.0 0.0 0.0 0.0 0.0 0.0 0.0 0.0" Properties=species:S:1:pos:R:3:Z:I:1 pbc="F F F"
C       0.00943844      -0.86126832       0.67352365        6 
C      -0.95986824       0.38202256       0.63212980        6 
C       1.33091474      -0.81178888      -0.06277180        6 
C      -0.47327265       1.64274194      -0.07345599        6 
O       2.29931753      -1.39418829       0.68657807        8 
O       1.53002063      -0.38462608      -1.17255735        8 
O       0.81826647       1.90660817       0.19522736        8 
O      -1.20375579       2.42206658      -0.63864360        8 
C       1.36155142       3.09718344      -0.40032074        6 
C       3.59577807      -1.48769871       0.07027415        6 
C      -0.89395727      -1.99451511       0.00720450        6 
C      -1.10058476      -1.60554229      -1.44958471        6 
C      -1.91317397      -0.54490452      -1.47105947        6 
C      -2.26086591      -0.20682585      -0.03144775        6 
C      -2.27625430      -1.62612447       0.58157719        6 
C      -1.24903165       0.86864415       2.07822159        6 
H       1.33007833       3.01727122      -1.48786988        1 
H       3.96582220      -0.49551762      -0.19243286        1 
H      -2.18450145       0.06101697      -2.32393665        1 
H       2.39109934       3.15083989      -0.05343689        1 
H       0.79869823       3.97640973      -0.08386791        1 
H       4.23863985      -1.95262970       0.81458188        1 
H       3.54742905      -2.10062863      -0.83154251        1 
H      -3.13336299       0.42578635       0.11771991        1 
H      -0.51783658      -2.99950525       0.19632605        1 
H      -1.65443495       0.06102291       2.68893969        1 
H      -0.33434328       1.22772567       2.55459403        1 
H      -1.97530319       1.68494914       2.06502296        1 
H      -3.07261020      -2.24481382       0.16540672        1 
H      -2.32661976      -1.65576607       1.67191713        1 
H      -0.57299814      -2.04170421      -2.28605500        1 
H       0.21680054      -1.13455426       1.70700288        1 
