32
Lattice="0.0 0.0 0.0 0.0 0.0 0.0 0.0 0.0 0.0" Properties=species:S:1:pos:R:3:Z:I:1 pbc="F F F"
C      -0.13452915      -0.95668915       0.82338396        6 
C      -1.08668124       0.29732676       0.63369358        6 
C       1.36592478      -0.74670311       0.80508240        6 
C      -0.52903919       1.56086756      -0.02063520        6 
O       1.94104649      -1.13020244      -0.35280457        8 
O       1.99638796      -0.36725384       1.76360398        8 
O       0.78571738       1.52620276      -0.28039348        8 
O      -1.22642064       2.51335236      -0.28430950        8 
C       1.33979549       2.68439260      -0.93055771        6 
C       3.36307310      -0.95119893      -0.43686370        6 
C      -0.72366758      -2.00442020      -0.18663906        6 
C      -0.60966470      -1.44307383      -1.59691787        6 
C      -1.48713238      -0.44004351      -1.70510616        6 
C      -2.18071479      -0.29756578      -0.35894328        6 
C      -2.22930530      -1.77642657       0.07663318        6 
C      -1.70732414       0.72784969       1.97654051        6 
H       0.88551930       2.81660421      -1.91366422        1 
H       3.87291508      -1.54374883       0.32449358        1 
H      -1.61315916       0.24056546      -2.53679692        1 
H       2.40425526       2.48168164      -1.02317005        1 
H       1.16777201       3.57775135      -0.32960959        1 
H       3.64091165      -1.28735041      -1.43385269        1 
H       3.62158577       0.10034269      -0.30064935        1 
H      -3.10574324       0.27553067      -0.34655566        1 
H      -0.33463942      -3.01081640      -0.03712302        1 
H      -2.25602440      -0.10127435       2.42862232        1 
H      -0.92839849       1.03866568       2.67779083        1 
H      -2.39497435       1.56060616       1.82384888        1 
H      -2.86647420      -2.37509234      -0.57640664        1 
H      -2.52548198      -1.93102249       1.11714637        1 
H       0.12842814      -1.75315655      -2.32214278        1 
H      -0.32209056      -1.32529125       1.83378464        1 
