32
Lattice="0.0 0.0 0.0 0.0 0.0 0.0 0.0 0.0 0.0" Properties=species:S:1:pos:R:3:Z:I:1 pbc="F F F"
C       0.85137858      -0.63879902      -0.70092407        6 
C       0.32986236       0.84911165      -0.57767165        6 
C       0.00285437      -1.85219645      -0.38243563        6 
C      -0.91419155       1.05162950       0.30377710        6 
O      -1.26895750      -1.57021190      -0.05630307        8 
O       0.40798921      -2.98068402      -0.54253961        8 
O      -1.93385199       1.61091938      -0.38915504        8 
O      -1.01341225       0.77714255       1.47318856        8 
C      -3.14933504       1.81849468       0.34777603        6 
C      -2.13562469      -2.69412452       0.18125571        6 
C       2.26514537      -0.62513588      -0.01251771        6 
C       2.07882738      -0.33172045       1.46476863        6 
C       1.67998649       0.93907966       1.57119246        6 
C       1.58696905       1.51463041       0.16235728        6 
C       2.76068280       0.75380469      -0.50062137        6 
C       0.12629698       1.46052229      -1.97470725        6 
H      -3.53047054       0.86888174       0.72703532        1 
H      -1.72218195      -3.33473002       0.96061083        1 
H       1.36063999       1.44994724       2.46703381        1 
H      -3.84794679       2.25698792      -0.36194742        1 
H      -2.98011791       2.49407299       1.18781249        1 
H      -3.08262365      -2.26474172       0.50063313        1 
H      -2.26467304      -3.27591932      -0.73314287        1 
H       1.58126054       2.60194107       0.08402943        1 
H       2.85829441      -1.50011740      -0.27079051        1 
H       1.03484644       1.36241963      -2.57054212        1 
H      -0.68447216       0.95781053      -2.50529725        1 
H      -0.12718496       2.51975966      -1.91009700        1 
H       3.72224263       1.02562711      -0.06434449        1 
H       2.81473943       0.84930053      -1.58688483        1 
H       2.14581369      -1.06720165       2.25512074        1 
H       1.04468011      -0.79633618      -1.76874431        1 
