32
Lattice="0.0 0.0 0.0 0.0 0.0 0.0 0.0 0.0 0.0" Properties=species:S:1:pos:R:3:Z:I:1 pbc="F F F"
C      -0.56688344       0.55558782      -0.93696517        6 
C      -0.62371101      -0.91845425      -0.38334698        6 
C       0.53170626       1.56617258      -0.64989038        6 
C       0.61943699      -1.58959561       0.19565994        6 
O       1.22908802       1.35568152       0.47639488        8 
O       0.62745256       2.58633065      -1.29702862        8 
O       1.76494026      -1.08836419      -0.29774424        8 
O       0.57614690      -2.63949292       0.79631679        8 
C       2.96299485      -1.82054867       0.00966783        6 
C       2.14397121       2.39616207       0.85589453        6 
C      -1.87732612       1.18692888      -0.24506073        6 
C      -1.56436607       1.28676557       1.24343447        6 
C      -1.54179118       0.04225667       1.73152527        6 
C      -1.86054060      -0.90530361       0.58472895        6 
C      -2.83551088      -0.01773684      -0.22667130        6 
C      -0.91289350      -1.87129573      -1.59193234        6 
H       3.10065991      -1.89462569       1.08916672        1 
H       1.60917733       3.33133983       1.03221421        1 
H      -1.24586620      -0.27081273       2.72382759        1 
H       3.77278848      -1.25165622      -0.44221099        1 
H       2.91530339      -2.82555138      -0.41386602        1 
H       2.61575085       2.04542732       1.77128216        1 
H       2.88871401       2.55503726       0.07464263        1 
H      -2.18806405      -1.90537896       0.86038201        1 
H      -2.20453087       2.09763382      -0.74200546        1 
H      -1.77590835      -1.53368258      -2.16349464        1 
H      -0.05592473      -1.89870471      -2.26966420        1 
H      -1.10447221      -2.88381178      -1.23373894        1 
H      -3.74911444       0.19789256       0.32936127        1 
H      -3.09986962      -0.39871925      -1.21301733        1 
H      -1.28721288       2.19771691       1.75666655        1 
H      -0.69697488       0.56284825      -2.01843850        1 
