32
Lattice="0.0 0.0 0.0 0.0 0.0 0.0 0.0 0.0 0.0" Properties=species:S:1:pos:R:3:Z:I:1 pbc="F F F"
C       0.78981370      -0.71424770       0.82820267        6 
C      -0.76244073      -0.47312375       0.63031383        6 
C       1.78944991       0.41841660       0.65638632        6 
C      -1.16746666       0.90094700       0.10232760        6 
O       2.04301035       0.73420297      -0.62280995        8 
O       2.41415572       0.88006519       1.58526984        8 
O      -2.51792795       0.97434013       0.00559011        8 
O      -0.44801884       1.80030580      -0.25049569        8 
C      -3.04852686       2.19700775      -0.53450353        6 
C       2.90911428       1.85737386      -0.84019335        6 
C       1.05675817      -1.93514876      -0.14620038        6 
C       0.80074175      -1.48097992      -1.57696620        6 
C      -0.51636086      -1.30290925      -1.71634536        6 
C      -1.16117590      -1.62673434      -0.38151829        6 
C      -0.22626366      -2.76118058       0.09891684        6 
C      -1.48786501      -0.66333634       1.98749515        6 
H      -2.76585751       3.04607946       0.08948869        1 
H       3.90195495       1.66844272      -0.42880832        1 
H      -1.03519929      -0.89039620      -2.57162720        1 
H      -4.12880785       2.06714403      -0.53666629        1 
H      -2.67962519       2.35819952      -1.54867860        1 
H       2.95729329       1.97960645      -1.92056532        1 
H       2.48273283       2.74790008      -0.37646389        1 
H      -2.23248093      -1.81921940      -0.38776695        1 
H       2.01309978      -2.42367081       0.03791187        1 
H      -1.21960903      -1.61937292       2.43785185        1 
H      -1.20294335       0.12526315       2.68977300        1 
H      -2.56966792      -0.63179797       1.85685483        1 
H      -0.28509820      -3.63855738      -0.54644473        1 
H      -0.37206997      -3.06309050       1.13780425        1 
H       1.57190268      -1.24929894      -2.29608286        1 
H       0.94594908      -1.04848562       1.85265016        1 
