32
Lattice="0.0 0.0 0.0 0.0 0.0 0.0 0.0 0.0 0.0" Properties=species:S:1:pos:R:3:Z:I:1 pbc="F F F"
C       0.04669732      -0.84348493       0.69297101        6 
C      -0.99471777       0.34314764       0.64598868        6 
C       1.37367893      -0.65823164      -0.00348132        6 
C      -0.53570984       1.56221858      -0.15733588        6 
O       2.33496236      -1.37108686       0.63095779        8 
O       1.58197118      -0.02807977      -1.01118821        8 
O       0.49536785       2.18035118       0.45638152        8 
O      -1.03374188       1.96379859      -1.17866086        8 
C       1.10955624       3.25025559      -0.28365703        6 
C       3.63639053      -1.35473467       0.01694364        6 
C      -0.76023813      -2.04495727       0.03995535        6 
C      -0.99348573      -1.70188536      -1.42118989        6 
C      -1.87856480      -0.70160189      -1.46115269        6 
C      -2.24547972      -0.35498045      -0.02551856        6 
C      -2.16422178      -1.76355550       0.61140553        6 
C      -1.33151083       0.83325205       2.07158314        6 
H       1.52115198       2.86069280      -1.21599250        1 
H       4.02754837      -0.33669318      -0.01902503        1 
H      -2.19624102      -0.13980617      -2.32608654        1 
H       1.90178734       3.63008077       0.35799615        1 
H       0.38268711       4.03321964      -0.50372019        1 
H       4.26222401      -1.98386275       0.64610234        1 
H       3.58541057      -1.75363747      -0.99749542        1 
H      -3.16622665       0.21132535       0.10898670        1 
H      -0.31232007      -3.01493486       0.25251574        1 
H      -1.73141450       0.02110196       2.68046591        1 
H      -0.44473605       1.22991941       2.56696290        1 
H      -2.08293350       1.62718775       2.03403284        1 
H      -2.91605428      -2.44266389       0.20699457        1 
H      -2.21062443      -1.77831441       1.70224068        1 
H      -0.44050112      -2.12033551      -2.25111151        1 
H       0.25993437      -1.09645349       1.73217677        1 
