32
Lattice="0.0 0.0 0.0 0.0 0.0 0.0 0.0 0.0 0.0" Properties=species:S:1:pos:R:3:Z:I:1 pbc="F F F"
C      -0.78191472       0.43010206       0.73010757        6 
C       0.77900662       0.58435404       0.58374551        6 
C      -1.37079775      -0.93265578       0.44808654        6 
C       1.41506791      -0.49322422      -0.30490785        6 
O      -2.67109069      -0.84002618       0.09449182        8 
O      -0.78864342      -1.98295729       0.56562143        8 
O       2.57611811      -0.95569637       0.20771038        8 
O       0.98133843      -0.87118608      -1.36485160        8 
C       3.22625623      -1.98499333      -0.55890809        6 
C      -3.34773370      -2.08836577      -0.14753799        6 
C      -1.37938924       1.68913248       0.00872668        6 
C      -1.03865185       1.60764501      -1.46710022        6 
C       0.27884298       1.79461261      -1.58490289        6 
C       0.84529649       1.98829022      -0.18562347        6 
C      -0.34078668       2.73938623       0.46588570        6 
C       1.46462159       0.66221681       1.95594759        6 
H       2.57479592      -2.85564003      -0.64697253        1 
H      -3.32240638      -2.71592250       0.74457685        1 
H       0.87314470       1.68942573      -2.48149810        1 
H       4.12847571      -2.23297993      -0.00376493        1 
H       3.47514622      -1.62148746      -1.55718805        1 
H      -4.37131289      -1.81870866      -0.39865011        1 
H      -2.87500814      -2.62007719      -0.97450113        1 
H       1.83176456       2.44709321      -0.12252947        1 
H      -2.42281416       1.86838969       0.25914672        1 
H       1.01216699       1.44369124       2.56869617        1 
H       1.36613629      -0.28633569       2.48858460        1 
H       2.52857027       0.87794736       1.85536542        1 
H      -0.50713828       3.71509068       0.00778057        1 
H      -0.26747371       2.85130753       1.54957592        1 
H      -1.73155417       1.32039920      -2.24607132        1 
H      -1.00396482       0.55600421       1.79863871        1 
