32
Lattice="0.0 0.0 0.0 0.0 0.0 0.0 0.0 0.0 0.0" Properties=species:S:1:pos:R:3:Z:I:1 pbc="F F F"
C      -0.86101314      -0.40410021      -0.48614269        6 
C       0.68626849      -0.28126673      -0.70044822        6 
C      -1.74133674       0.79354241      -0.18793021        6 
C       1.42686775       0.74626344       0.16226425        6 
O      -3.04107221       0.38093175      -0.25421020        8 
O      -1.43750062       1.92792042       0.06144031        8 
O       2.72596049       0.82661739      -0.23967772        8 
O       1.00342207       1.37014640       1.09593713        8 
C       3.56084465       1.70388642       0.53398239        6 
C      -4.03252817       1.38952363       0.00014439        6 
C      -1.04958589      -1.71909044       0.35750978        6 
C      -0.29642043      -1.59133665       1.67058957        6 
C       1.01060672      -1.62665724       1.39244048        6 
C       1.15244797      -1.71658479      -0.12208573        6 
C      -0.06458509      -2.61126889      -0.43750837        6 
C       1.03074298      -0.11689626      -2.18832221        6 
H       3.17852058       2.72525697       0.49989955        1 
H      -3.95568064       2.19836791      -0.72880256        1 
H       1.82892632      -1.46590923       2.08141690        1 
H       4.54591419       1.64744611       0.07512542        1 
H       3.60226749       1.37529912       1.57414646        1 
H      -4.99178994       0.88399128      -0.09221561        1 
H      -3.91238000       1.80246867       1.00318845        1 
H       2.12529178      -2.01777514      -0.50630402        1 
H      -2.08827518      -2.03675908       0.41407982        1 
H       0.57753838      -0.92120162      -2.77282984        1 
H       0.64572987       0.83371248      -2.56926719        1 
H       2.10778606      -0.13474686      -2.34877072        1 
H       0.04270941      -3.60846919      -0.00849943        1 
H      -0.30546655      -2.69524074      -1.50016340        1 
H      -0.75635417      -1.40593858       2.63182605        1 
H      -1.24723396      -0.68806471      -1.47282301        1 
