32
Lattice="0.0 0.0 0.0 0.0 0.0 0.0 0.0 0.0 0.0" Properties=species:S:1:pos:R:3:Z:I:1 pbc="F F F"
C       1.02291027       0.29253394      -0.73562711        6 
C      -0.52227267       0.64576702      -0.65902306        6 
C       1.67560744      -1.06093603      -0.51907307        6 
C      -1.48985993      -0.28570113       0.08311645        6 
O       1.06466785      -1.88291488       0.33337503        8 
O       2.71938744      -1.33447941      -1.07380789        8 
O      -2.72761719      -0.23221226      -0.48193795        8 
O      -1.27533540      -0.93859770       1.06947423        8 
C      -3.75020976      -0.99288321       0.18140965        6 
C       1.70137772      -3.14999180       0.57414586        6 
C       1.70870936       1.40994202       0.15437643        6 
C       1.24288206       1.22966794       1.58639958        6 
C      -0.04422567       1.58574537       1.63582354        6 
C      -0.46390692       1.98772972       0.22966330        6 
C       0.85312577       2.62312874      -0.26592972        6 
C      -1.03936888       0.95518653      -2.07869522        6 
H      -3.49144842      -2.05284259       0.19624585        1 
H       2.69492171      -3.00470709       1.00115385        1 
H      -0.71823682       1.47796104       2.47382463        1 
H      -4.65590887      -0.82821188      -0.39895991        1 
H      -3.88366351      -0.64625033       1.20769849        1 
H       1.05062901      -3.66369866       1.27819045        1 
H       1.79159567      -3.71616477      -0.35440710        1 
H      -1.37760205       2.57536713       0.14074129        1 
H       2.78274283       1.46397823      -0.01481130        1 
H      -0.36355381       1.64088712      -2.59136654        1 
H      -1.10236473       0.04198106      -2.67595866        1 
H      -2.03038310       1.40587802      -2.05062357        1 
H       1.10560293       3.52419273       0.29430514        1 
H       0.88225623       2.83777370      -1.33567646        1 
H       1.82604525       0.77761336       2.37708626        1 
H       1.32417224       0.51271699      -1.76131128        1 
