32
Lattice="0.0 0.0 0.0 0.0 0.0 0.0 0.0 0.0 0.0" Properties=species:S:1:pos:R:3:Z:I:1 pbc="F F F"
C      -0.78141833      -0.35430217      -0.65577696        6 
C       0.77222296      -0.62569455      -0.58555845        6 
C      -1.31980766       0.97707907      -0.18488096        6 
C       1.56481883       0.34471291       0.31247683        6 
O      -2.63727185       1.05859143      -0.49748781        8 
O      -0.72782787       1.85776612       0.38536882        8 
O       2.33323074       1.18042984      -0.42042044        8 
O       1.51261140       0.40600000       1.51381514        8 
C       3.00775960       2.21123758       0.32151266        6 
C      -3.30718567       2.26980833      -0.10485157        6 
C      -1.44091535      -1.63015353      -0.00156633        6 
C      -1.05145772      -1.67748260       1.46336898        6 
C       0.25569821      -1.94989247       1.51828956        6 
C       0.76339836      -2.07695371       0.08460884        6 
C      -0.49063679      -2.70595229      -0.57019347        6 
C       1.37386942      -0.67781692      -2.00104517        6 
H       2.27707513       2.83043986       0.84346664        1 
H      -2.86060690       3.13215808      -0.60284316        1 
H       0.88210690      -1.96730668       2.39672135        1 
H       3.55057626       2.79366450      -0.42024858        1 
H       3.69606425       1.77514501       1.04707257        1 
H      -4.34161494       2.14261334      -0.41698085        1 
H      -3.24560993       2.40858543       0.97549555        1 
H       1.71182541      -2.59948533      -0.04188600        1 
H      -2.50002448      -1.71576381      -0.23728034        1 
H       0.86753259      -1.43060019      -2.60683190        1 
H       1.27655940       0.28531182      -2.50442986        1 
H       2.43638479      -0.92688830      -1.96846831        1 
H      -0.70490244      -3.69853307      -0.17236412        1 
H      -0.46819541      -2.75031408      -1.66098389        1 
H      -1.70237328      -1.41969665       2.28796357        1 
H      -1.06053694      -0.38674375      -1.71492578        1 
