32
Lattice="0.0 0.0 0.0 0.0 0.0 0.0 0.0 0.0 0.0" Properties=species:S:1:pos:R:3:Z:I:1 pbc="F F F"
C      -0.76930797       0.70455186       0.84498561        6 
C       0.78485651       0.47165162       0.65029504        6 
C      -1.69911710      -0.48563133       0.69054260        6 
C       1.14867597      -0.85616423      -0.00589638        6 
O      -2.24036127      -0.59560055      -0.53436142        8 
O      -2.02634052      -1.18172855       1.62488530        8 
O       2.49037518      -1.03193755      -0.01956015        8 
O       0.39096932      -1.64290595      -0.51705745        8 
C       2.95973757      -2.22677166      -0.67117855        6 
C      -3.05792299      -1.75543498      -0.75850027        6 
C      -1.05019463       1.93057820      -0.10284565        6 
C      -0.75844834       1.52300906      -1.54009978        6 
C       0.56467597       1.38679138      -1.66419393        6 
C       1.17831402       1.67715396      -0.30585141        6 
C       0.21095484       2.77455365       0.19445216        6 
C       1.51378437       0.56605681       2.00804415        6 
H       2.55766483      -3.11277819      -0.17773545        1 
H      -3.89025501      -1.78499238      -0.05387581        1 
H       1.10730856       1.01304632      -2.52257556        1 
H       4.04363747      -2.19746304      -0.58382407        1 
H       2.65736341      -2.23353053      -1.71963768        1 
H      -3.42113575      -1.66210472      -1.78010214        1 
H      -2.45362914      -2.65731947      -0.64898853        1 
H       2.24634434       1.88765604      -0.28587764        1 
H      -2.01948923       2.39433821       0.07669539        1 
H       1.29175185       1.51603925       2.49644723        1 
H       1.18654026      -0.23581370       2.67556240        1 
H       2.59268377       0.48720242       1.87687935        1 
H       0.26512462       3.67615235      -0.41715355        1 
H       0.32917877       3.03821315       1.24769140        1 
H      -1.51346252       1.29076125      -2.27606296        1 
H      -0.92104469       1.02144408       1.87711534        1 
