32
Lattice="0.0 0.0 0.0 0.0 0.0 0.0 0.0 0.0 0.0" Properties=species:S:1:pos:R:3:Z:I:1 pbc="F F F"
C       0.22740850       0.87073430       0.91153534        6 
C       1.15919076      -0.36607853       0.53579715        6 
C      -1.25948339       0.58443511       0.86652742        6 
C       0.37947391      -1.60047229       0.06780484        6 
O      -1.92087870       1.30473190      -0.05839536        8 
O      -1.81049552      -0.17407598       1.63036291        8 
O      -0.42426549      -1.34750884      -0.98651687        8 
O       0.42310589      -2.68022991       0.60364000        8 
C      -1.27975413      -2.42693388      -1.40195209        6 
C      -3.33473493       1.06050085      -0.15668591        6 
C       0.77590658       2.02662776      -0.00230559        6 
C       0.48320871       1.68656602      -1.45487401        6 
C       1.26240894       0.65665806      -1.79059591        6 
C       2.09233037       0.28829202      -0.57097742        6 
C       2.28729111       1.70254031       0.03542889        6 
C       1.98418543      -0.81364756       1.75583767        6 
H      -0.68963903      -3.29676959      -1.69365861        1 
H      -3.83027153       1.27850397       0.79033160        1 
H       1.24549985       0.09781215      -2.71560862        1 
H      -1.83781978      -2.04013406      -2.25244891        1 
H      -1.95375154      -2.70480696      -0.58998964        1 
H      -3.69007719       1.72708982      -0.93963041        1 
H      -3.52022241       0.01964023      -0.42658968        1 
H       2.98601959      -0.30719812      -0.75821975        1 
H       0.46691113       3.01646755       0.33153284        1 
H       2.56896207       0.01252131       2.15996859        1 
H       1.32726289      -1.18783304       2.54234418        1 
H       2.66710779      -1.62172181       1.48712115        1 
H       2.86542973       2.35205887      -0.62275992        1 
H       2.72390875       1.71545047       1.03467508        1 
H      -0.29930692       2.13745564      -2.04668165        1 
H       0.42359283       1.11168531       1.95898116        1 
