32
Lattice="0.0 0.0 0.0 0.0 0.0 0.0 0.0 0.0 0.0" Properties=species:S:1:pos:R:3:Z:I:1 pbc="F F F"
C      -0.73626439       0.55547721      -0.89651543        6 
C      -0.44191380      -0.95279381      -0.50048427        6 
C       0.15423464       1.71242430      -0.47300562        6 
C       0.85828326      -1.23124129       0.26224228        6 
O       1.32460633       1.35851204       0.07922761        8 
O      -0.18830989       2.86500790      -0.60382502        8 
O       1.92192878      -1.28521330      -0.56589572        8 
O       0.93888491      -1.46841264       1.44304385        8 
C       3.19111575      -1.51486424       0.06242063        6 
C       2.16156271       2.43551667       0.53996891        6 
C      -2.17375934       0.80565807      -0.27001936        6 
C      -1.95850536       0.84743778       1.23773385        6 
C      -1.66357160      -0.39652654       1.62916908        6 
C      -1.69843830      -1.28958450       0.39339238        6 
C      -2.81850192      -0.58362625      -0.40951090        6 
C      -0.42389118      -1.83731281      -1.77144293        6 
H       3.39897767      -0.73083774       0.79249437        1 
H       1.64285206       3.01837678       1.30182616        1 
H      -1.35203450      -0.72481386       2.60907610        1 
H       3.92331369      -1.49458982      -0.74212609        1 
H       3.20105937      -2.48235863       0.56703576        1 
H       3.04362683       1.95666742       0.95887299        1 
H       2.43305487       3.08717198      -0.29132320        1 
H      -1.80452252      -2.35791601       0.57895275        1 
H      -2.68029276       1.65824196      -0.71559787        1 
H      -1.34843910      -1.73521606      -2.33958287        1 
H       0.40710582      -1.56698258      -2.42268779        1 
H      -0.31039167      -2.89153103      -1.50261891        1 
H      -3.78352324      -0.64003446       0.09604467        1 
H      -2.93387484      -0.92464678      -1.43906592        1 
H      -1.93345693       1.75156384       1.83095949        1 
H      -0.79873683       0.62647723      -1.98674231        1 
