32
Lattice="0.0 0.0 0.0 0.0 0.0 0.0 0.0 0.0 0.0" Properties=species:S:1:pos:R:3:Z:I:1 pbc="F F F"
C       0.90421793      -0.68489800      -0.62751255        6 
C       0.23546991       0.74023605      -0.67916486        6 
C       0.11473138      -1.85024492      -0.07983131        6 
C      -0.97179860       0.86754808       0.24691837        6 
O      -1.13846242      -1.86455833      -0.58815886        8 
O       0.57475707      -2.74862603       0.58078578        8 
O      -1.83431481       1.81776895      -0.17985824        8 
O      -1.13408018       0.26501328       1.28011734        8 
C      -2.97803864       2.05057733       0.66093050        6 
C      -1.98457771      -2.94345046      -0.15526468        6 
C       2.30178228      -0.44176674       0.02900551        6 
C       2.08043199       0.03220924       1.45484906        6 
C       1.57967778       1.26959229       1.39529735        6 
C       1.42642581       1.63224565      -0.07514354        6 
C       2.65769609       0.89795552      -0.65505443        6 
C      -0.10909998       1.15589984      -2.11761033        6 
H      -3.57758625       1.14301070       0.74744267        1 
H      -2.14990617      -2.87917813       0.92130357        1 
H       1.20161799       1.86018653       2.21854398        1 
H      -3.54445501       2.83793546       0.16808009        1 
H      -2.66414300       2.36685923       1.65685581        1 
H      -2.92129280      -2.81322120      -0.69348516        1 
H      -1.53336387      -3.90687469      -0.39689358        1 
H       1.30511061       2.68967181      -0.30899255        1 
H       2.98479691      -1.27828129      -0.10273161        1 
H       0.76928191       1.06871930      -2.75919677        1 
H      -0.89079126       0.51021175      -2.52527877        1 
H      -0.46525361       2.18510193      -2.15925681        1 
H       3.59485014       1.32016624      -0.29020857        1 
H       2.68215720       0.84701052      -1.74617616        1 
H       2.19774724      -0.58832843       2.33183100        1 
H       1.08008005      -0.98064166      -1.66943608        1 
