32
Lattice="0.0 0.0 0.0 0.0 0.0 0.0 0.0 0.0 0.0" Properties=species:S:1:pos:R:3:Z:I:1 pbc="F F F"
C      -0.75177436       0.32848468       0.76968830        6 
C       0.76073764       0.72516754       0.53558550        6 
C      -1.17305707      -1.07116595       0.38306358        6 
C       1.52683894      -0.26224170      -0.36190343        6 
O      -2.51380571      -1.14218619       0.23334012        8 
O      -0.44340237      -2.02425565       0.26009901        8 
O       2.52181877      -0.88426960       0.30188264        8 
O       1.29087076      -0.47913746      -1.52487799        8 
C       3.19466849      -1.92643938      -0.42581833        6 
C      -3.04754880      -2.44021037      -0.08882802        6 
C      -1.57429253       1.51336419       0.14667279        6 
C      -1.35775787       1.48463774      -1.35438959        6 
C      -0.08968449       1.83959783      -1.57943031        6 
C       0.56248060       2.11450830      -0.23024596        6 
C      -0.65636795       2.69411874       0.52714605        6 
C       1.48871189       0.93058468       1.87434720        6 
H       2.47665655      -2.69152511      -0.72462871        1 
H      -2.82899500      -3.15184544       0.70907495        1 
H       0.43349754       1.82771581      -2.52367733        1 
H       3.92889070      -2.33419813       0.26590125        1 
H       3.68425230      -1.52297446      -1.31362907        1 
H      -4.12099741      -2.29444875      -0.18847981        1 
H      -2.62049061      -2.80646568      -1.02347167        1 
H       1.47559371       2.70952445      -0.24794952        1 
H      -2.60542045       1.54220098       0.49217885        1 
H       0.96608397       1.66283691       2.49088552        1 
H       1.54645802      -0.00606323       2.43035405        1 
H       2.50846605       1.28615867       1.71476953        1 
H      -0.99659047       3.63630332       0.09525454        1 
H      -0.51165554       2.81900913       1.60200837        1 
H      -2.07522294       1.11955171      -2.07665618        1 
H      -0.92134375       0.34840919       1.85428647        1 
