32
Lattice="0.0 0.0 0.0 0.0 0.0 0.0 0.0 0.0 0.0" Properties=species:S:1:pos:R:3:Z:I:1 pbc="F F F"
C       0.62339778      -0.77613725       0.50464177        6 
C      -0.87124757      -0.35419288       0.81997048        6 
C       1.63265348       0.26080480       0.06268645        6 
C      -1.25774452       1.10679814       0.51436828        6 
O       2.86575305      -0.10802813       0.49592177        8 
O       1.44856866       1.24730864      -0.60492429        8 
O      -1.32050991       1.39584764      -0.78970203        8 
O      -1.58400772       1.89569082       1.37281808        8 
C      -1.59141092       2.76308805      -1.13325622        6 
C       3.95403033       0.74223809       0.09153690        6 
C       0.47716623      -1.96892740      -0.52301669        6 
C      -0.10805354      -1.42798829      -1.81251835        6 
C      -1.37906183      -1.10080659      -1.56382576        6 
C      -1.66020332      -1.40140578      -0.09842487        6 
C      -0.77206511      -2.65887907       0.06917203        6 
C      -1.17985507      -0.58843037       2.30847712        6 
H      -2.54077959       3.09062140      -0.70693836        1 
H       3.79533876       1.76103126       0.44799494        1 
H      -2.06895788      -0.60764169      -2.23170476        1 
H      -1.62771514       2.78346233      -2.22060249        1 
H      -0.78611197       3.40258794      -0.76951776        1 
H       4.84330378       0.31069091       0.54570858        1 
H       4.04618760       0.75504952      -0.99596763        1 
H      -2.70984626      -1.48774106       0.18205700        1 
H       1.38848012      -2.55986265      -0.60526273        1 
H      -0.94163077      -1.61010132       2.60521699        1 
H      -0.60100632       0.09487364       2.93179090        1 
H      -2.23511733      -0.40479071       2.51890304        1 
H      -1.11537762      -3.48686564      -0.55236844        1 
H      -0.64897938      -3.00231830       1.09745042        1 
H       0.45058853      -1.24073908      -2.71941464        1 
H       1.03792013      -1.20360027       1.41946057        1 
