32
Lattice="0.0 0.0 0.0 0.0 0.0 0.0 0.0 0.0 0.0" Properties=species:S:1:pos:R:3:Z:I:1 pbc="F F F"
C      -0.56242650       0.69170082      -0.91224729        6 
C      -0.76208080      -0.80932723      -0.45810594        6 
C       0.75752132       1.40176112      -0.69555150        6 
C       0.39859931      -1.50027741       0.24755252        6 
O       1.18748467       1.36342325       0.58116613        8 
O       1.32153022       2.03082858      -1.56074165        8 
O       1.58358662      -1.20602169      -0.32518571        8 
O       0.26744010      -2.36555905       1.07997478        8 
C       2.72815691      -1.91920659       0.17254864        6 
C       2.43853884       2.01659803       0.84605906        6 
C      -1.75550165       1.41955658      -0.15458137        6 
C      -1.50609057       1.31379248       1.34444317        6 
C      -1.68758282       0.03723317       1.69589448        6 
C      -2.05285038      -0.73352491       0.43777638        6 
C      -2.85922255       0.35139188      -0.31615150        6 
C      -1.00685943      -1.70619170      -1.70263318        6 
H       2.88382040      -1.69672350       1.22944506        1 
H       2.37923290       3.07933892       0.60648405        1 
H      -1.49503581      -0.41762755       2.65731058        1 
H       3.56866244      -1.56725025      -0.42159205        1 
H       2.59170493      -2.99461121       0.04873207        1 
H       2.62087657       1.87218465       1.90900544        1 
H       3.23563679       1.56222635       0.25451876        1 
H      -2.52032348      -1.70529119       0.58501812        1 
H      -1.95456524       2.41623537      -0.54690868        1 
H      -1.86809344      -1.35190094      -2.26944848        1 
H      -0.13728717      -1.69456508      -2.36262598        1 
H      -1.20026843      -2.73683416      -1.39567934        1 
H      -3.77750626       0.61930360       0.20763676        1 
H      -3.09196253       0.10919916      -1.35534490        1 
H      -1.13657023       2.11787731       1.96470692        1 
H      -0.73859870       0.76587536      -1.98500916        1 
