32
Lattice="0.0 0.0 0.0 0.0 0.0 0.0 0.0 0.0 0.0" Properties=species:S:1:pos:R:3:Z:I:1 pbc="F F F"
C      -0.62130062       0.58277111      -0.96118563        6 
C      -0.69220201      -0.91427842      -0.42105748        6 
C       0.71706525       1.27880725      -0.84008708        6 
C       0.49476356      -1.29903729       0.46796670        6 
O       0.98390174       1.69153118       0.41534290        8 
O       1.48736852       1.42162751      -1.75994391        8 
O       1.60529733      -1.47862568      -0.28108049        8 
O       0.49627816      -1.40644199       1.66845963        8 
C       2.81636715      -1.77568492       0.43400515        6 
C       2.26322485       2.31440842       0.62144377        6 
C      -1.87953082       1.26289049      -0.31265799        6 
C      -1.73341293       1.28129088       1.19990564        6 
C      -1.84107817       0.02137143       1.62968935        6 
C      -2.04506981      -0.86470243       0.40727645        6 
C      -2.88465339       0.09692882      -0.46857110        6 
C      -0.77877872      -1.91785068      -1.58728487        6 
H       3.02396633      -0.99753464       1.17016035        1 
H       2.33844765       3.23538387       0.04082854        1 
H      -1.69582411      -0.34610341       2.63369183        1 
H       3.59726812      -1.81038542      -0.32230713        1 
H       2.73219083      -2.73618163       0.94517825        1 
H       2.31261132       2.52663613       1.68711058        1 
H       3.06797816       1.64031334       0.32382590        1 
H      -2.45321525      -1.85771171       0.59584359        1 
H      -2.13505341       2.20929509      -0.78914596        1 
H      -1.66766583      -1.73007656      -2.19248111        1 
H       0.09829374      -1.84167486      -2.23002119        1 
H      -0.83975357      -2.94243671      -1.20908635        1 
H      -3.85432380       0.31947243      -0.02197548        1 
H      -3.02728921      -0.23099794      -1.50100903        1 
H      -1.47952317       2.15475642       1.78292224        1 
H      -0.78439023       0.53552579      -2.03967966        1 
