32
Lattice="0.0 0.0 0.0 0.0 0.0 0.0 0.0 0.0 0.0" Properties=species:S:1:pos:R:3:Z:I:1 pbc="F F F"
C       0.27690693      -0.96097275       0.47906372        6 
C      -0.88747769       0.05966448       0.84694775        6 
C       1.61522365      -0.53459848      -0.09689683        6 
C      -0.76378359       1.54755264       0.49595108        6 
O       2.61003584      -0.99346328       0.71314191        8 
O       1.84083927       0.07638369      -1.10865584        8 
O      -0.19159462       1.77524170      -0.68746890        8 
O      -1.21614427       2.43087485       1.19104815        8 
C      -0.10320248       3.14236880      -1.11811204        6 
C       3.95109302      -0.72182199       0.27065316        6 
C      -0.44195186      -1.97692466      -0.50602187        6 
C      -0.81592193      -1.22489569      -1.77010512        6 
C      -1.81443964      -0.39397030      -1.45927927        6 
C      -2.11034487      -0.56443262       0.01982078        6 
C      -1.82370764      -2.07568720       0.17268233        6 
C      -1.16241106      -0.01575521       2.36201055        6 
H      -1.10022790       3.56813808      -1.24670450        1 
H       4.11712282       0.35365719       0.18914763        1 
H      -2.25334151       0.36298021      -2.09429072        1 
H       0.42768450       3.10600008      -2.06661890        1 
H       0.44891192       3.73824181      -0.39000686        1 
H       4.60077300      -1.15314140       1.02926382        1 
H       4.13487681      -1.18452967      -0.70062384        1 
H      -3.07115383      -0.19083839       0.37228106        1 
H       0.11940544      -2.90204903      -0.63724844        1 
H      -1.28797405      -1.04878907       2.68659189        1 
H      -0.32846964       0.41299363       2.92315191        1 
H      -2.05825656       0.54745023       2.62211958        1 
H      -2.52343750      -2.68343791      -0.40299462        1 
H      -1.79216269      -2.43362471       1.20260250        1 
H      -0.27617273      -1.27906117      -2.70454508        1 
H       0.51517958      -1.50222937       1.39318208        1 
