32
Lattice="0.0 0.0 0.0 0.0 0.0 0.0 0.0 0.0 0.0" Properties=species:S:1:pos:R:3:Z:I:1 pbc="F F F"
C      -0.76440167       0.54690252       0.87733587        6 
C       0.79297927       0.58117239       0.59764243        6 
C      -1.42302863      -0.80081717       0.67383348        6 
C       1.27173998      -0.61698169      -0.22213839        6 
O      -2.46588398      -0.75077902      -0.17352685        8 
O      -1.07253279      -1.80490341       1.24798497        8 
O       2.53933590      -0.96824284       0.07989168        8 
O       0.63741373      -1.16384619      -1.09204234        8 
C       3.07836474      -2.07281235      -0.66945645        6 
C      -3.09150425      -2.01047147      -0.47941369        6 
C      -1.31836462       1.78337569       0.08898322        6 
C      -1.10052137       1.54913468      -1.39551150        6 
C       0.21204688       1.63017454      -1.62747250        6 
C       0.89769205       1.90354371      -0.29840106        6 
C      -0.17962302       2.78954707       0.37110365        6 
C       1.59051724       0.71477216       1.90422153        6 
H       2.47252334      -2.96648361      -0.51343162        1 
H      -3.48571233      -2.47506001       0.42556945        1 
H       0.72578569       1.40265835      -2.55142254        1 
H       4.08541992      -2.21846332      -0.28494171        1 
H       3.10200162      -1.83757106      -1.73469426        1 
H      -3.89639759      -1.77294097      -1.17176712        1 
H      -2.36671972      -2.67904872      -0.94581069        1 
H       1.91598012       2.28888101      -0.34474381        1 
H      -2.32571459       2.06797706       0.38889265        1 
H       1.22693993       1.55997866       2.49040717        1 
H       1.47905823      -0.18798628       2.50907625        1 
H       2.65254046       0.86133840       1.70692624        1 
H      -0.31706471       3.73402707      -0.15716729        1 
H      -0.01025755       2.98580217       1.43196149        1 
H      -1.87125375       1.24727185      -2.08966772        1 
H      -0.89303326       0.74050381       1.94652567        1 
