32
Lattice="0.0 0.0 0.0 0.0 0.0 0.0 0.0 0.0 0.0" Properties=species:S:1:pos:R:3:Z:I:1 pbc="F F F"
C      -0.84215189      -0.26132550      -0.96796394        6 
C       0.51709307      -0.92050649      -0.45497728        6 
C      -0.95909759       1.24492838      -0.82768490        6 
C       1.38762662       0.04772952       0.35580722        6 
O      -1.54049185       1.64372142       0.31183021        8 
O      -0.62858213       2.01050243      -1.70669007        8 
O       2.65029619       0.12339092      -0.11844556        8 
O       1.02828837       0.66943067       1.32643087        8 
C       3.53367970       1.01209913       0.58836972        6 
C      -1.62286155       3.06297005       0.52245615        6 
C      -1.94727591      -1.13470631      -0.25765658        6 
C      -1.86528007      -0.92767441       1.24656892        6 
C      -0.73718290      -1.50093708       1.67157826        6 
C      -0.04327963      -2.09865621       0.45960164        6 
C      -1.28307450      -2.52657421      -0.36397731        6 
C       1.30470966      -1.48904473      -1.65133979        6 
H       3.15757127       2.03535017       0.54388646        1 
H      -2.19878240       3.53784050      -0.27340351        1 
H      -0.31125975      -1.44971117       2.66313046        1 
H       4.49092238       0.93284672       0.07796961        1 
H       3.62570594       0.71005922       1.63272337        1 
H      -2.11818303       3.18345577       1.48329787        1 
H      -0.62166866       3.49482422       0.55347693        1 
H       0.71456621      -2.85723763       0.65583191        1 
H      -2.93188584      -1.01564809      -0.70979560        1 
H       0.68505071      -2.17686161      -2.22784818        1 
H       1.62757723      -0.68838043      -2.31841423        1 
H       2.19288360      -2.02729125      -1.31713086        1 
H      -1.86117173      -3.30015581       0.14280889        1 
H      -1.07047574      -2.84556416      -1.38587537        1 
H      -2.54611746      -0.31783219       1.82074281        1 
H      -0.89242989      -0.43066920      -2.04409429        1 
