32
Lattice="0.0 0.0 0.0 0.0 0.0 0.0 0.0 0.0 0.0" Properties=species:S:1:pos:R:3:Z:I:1 pbc="F F F"
C      -0.04400246      -1.03413643       0.74268924        6 
C      -1.10281855       0.15152947       0.62909451        6 
C       1.47638802      -0.97760431       0.76046795        6 
C      -0.71323329       1.60141875       0.31799816        6 
O       2.06213556      -0.22650404      -0.18014578        8 
O       2.10726811      -1.71979402       1.48413625        8 
O       0.38344104       1.74197023      -0.43010143        8 
O      -1.40452008       2.54150508       0.64512850        8 
C       0.71425598       3.07832984      -0.84058922        6 
C       3.49359050      -0.33290743      -0.26636457        6 
C      -0.48793595      -2.01173091      -0.43515676        6 
C      -0.24121916      -1.29302894      -1.74931503        6 
C      -1.14580406      -0.31362421      -1.84490012        6 
C      -2.00369108      -0.35991315      -0.59274479        6 
C      -2.01980425      -1.88197828      -0.33624208        6 
C      -1.93281794       0.19489670       1.92990013        6 
H      -0.07533996       3.49174843      -1.47076305        1 
H       3.78933269      -1.35930391      -0.49027189        1 
H      -1.19723694       0.45818425      -2.60077473        1 
H       1.64125761       2.98211424      -1.40216698        1 
H       0.85351707       3.72507820       0.02671294        1 
H       3.78203296       0.33488588      -1.07562776        1 
H       3.95955093      -0.02582802       0.67099723        1 
H      -2.95947531       0.16074801      -0.63606941        1 
H      -0.05787322      -3.00672397      -0.32924355        1 
H      -2.32017832      -0.79241196       2.18212128        1 
H      -1.31480464       0.53386265       2.76566558        1 
H      -2.76876483       0.88660573       1.83293433        1 
H      -2.53235842      -2.42352338      -1.13294158        1 
H      -2.43305115      -2.17780277       0.62866957        1 
H       0.59264085      -1.47907565      -2.41157768        1 
H      -0.26089977      -1.54895206       1.67781808        1 
