32
Lattice="0.0 0.0 0.0 0.0 0.0 0.0 0.0 0.0 0.0" Properties=species:S:1:pos:R:3:Z:I:1 pbc="F F F"
C       0.74388700      -0.67252147      -0.80184475        6 
C       0.44499500       0.86840803      -0.54944789        6 
C      -0.21411858      -1.72613337      -0.28499068        6 
C      -0.77230416       1.12496919       0.35212432        6 
O      -1.50232335      -1.33647082      -0.37800536        8 
O       0.11793722      -2.82977788       0.07276700        8 
O      -1.82684931       1.60519438      -0.33957914        8 
O      -0.80746077       0.96576963       1.54854744        8 
C      -3.02826121       1.81589535       0.41768823        6 
C      -2.49003724      -2.28514318       0.06504574        6 
C       2.20208665      -0.87198420      -0.25582672        6 
C       2.13399629      -0.72246716       1.25504855        6 
C       1.88544395       0.56396518       1.51558430        6 
C       1.79018909       1.29761197       0.18246159        6 
C       2.82839652       0.48608298      -0.63188692        6 
C       0.27965040       1.61110711      -1.88966820        6 
H      -3.36197225       0.87842070       0.86604299        1 
H      -2.35983026      -2.49457985       1.12771630        1 
H       1.67344613       1.00898911       2.47567890        1 
H      -3.76200046       2.18180716      -0.29759125        1 
H      -2.86267442       2.54870770       1.20884856        1 
H      -3.45078387      -1.80826662      -0.11681498        1 
H      -2.40892273      -3.21466917      -0.49993089        1 
H       1.91391051       2.38028061       0.21847230        1 
H       2.67706340      -1.77411804      -0.63543271        1 
H       1.15517247       1.46716158      -2.52312083        1 
H      -0.59556446       1.24590919      -2.42741499        1 
H       0.14937163       2.68345446      -1.72833314        1 
H       3.83769367       0.59800073      -0.23436219        1 
H       2.83667013       0.69522161      -1.70300849        1 
H       2.15677506      -1.54624712       1.95420776        1 
H       0.74100702      -0.82636090      -1.88804913        1 
