32
Lattice="0.0 0.0 0.0 0.0 0.0 0.0 0.0 0.0 0.0" Properties=species:S:1:pos:R:3:Z:I:1 pbc="F F F"
C       0.57449354      -0.91728797      -0.77842305        6 
C       0.92590122       0.63425451      -0.61904574        6 
C      -0.89057801      -1.29420471      -0.80773710        6 
C      -0.29838346       1.51005355      -0.30774577        6 
O      -1.46979984      -1.32073057       0.40863584        8 
O      -1.48889443      -1.55299621      -1.82614900        8 
O      -0.68091665       1.49802160       0.97995749        8 
O      -0.86881833       2.17334687      -1.14261269        8 
C      -1.87017469       2.24258016       1.29317281        6 
C      -2.87008645      -1.65132257       0.43194246        6 
C       1.48715169      -1.61261352       0.29696559        6 
C       1.06319789      -1.18554424       1.69193956        6 
C       1.39207961       0.10009705       1.83355835        6 
C       2.02713344       0.56181822       0.52996520        6 
C       2.75691517      -0.74653961       0.13326749        6 
C       1.52450402       1.17756079      -1.92994987        6 
H      -1.73811408       3.29967248       1.05815874        1 
H      -3.03239447      -2.65955924       0.04736663        1 
H       1.15859260       0.74719993       2.66545463        1 
H      -2.02515426       2.10095341       2.36072620        1 
H      -2.71967237       1.85575486       0.72774792        1 
H      -3.16429201      -1.58706780       1.47728034        1 
H      -3.43873878      -0.94473960      -0.17462201        1 
H       2.62514226       1.47167844       0.58131379        1 
H       1.58888404      -2.68460129       0.12686934        1 
H       2.40512397       0.60603263      -2.22230231        1 
H       0.79154906       1.12481641      -2.73524772        1 
H       1.81539637       2.22447303      -1.81535645        1 
H       3.53528331      -1.01550328       0.84796690        1 
H       3.17186934      -0.75129406      -0.87587419        1 
H       0.50105379      -1.79946381       2.38059107        1 
H       0.92657137      -1.21543353      -1.76693747        1 
