32
Lattice="0.0 0.0 0.0 0.0 0.0 0.0 0.0 0.0 0.0" Properties=species:S:1:pos:R:3:Z:I:1 pbc="F F F"
C      -0.24882791      -1.10193552       0.41936641        6 
C      -0.73457010       0.33188845       0.83192060        6 
C       1.19360893      -1.37156878       0.06175893        6 
C      -0.02311324       1.52987090       0.19833851        6 
O       2.03404238      -0.59722923       0.78251593        8 
O       1.56802169      -2.30784841      -0.60309183        8 
O       0.79818780       1.20806890      -0.81596018        8 
O      -0.26724432       2.67445676       0.50491900        8 
C       1.36298136       2.30286788      -1.55540246        6 
C       3.43757726      -0.84868842       0.60544068        6 
C      -1.36513799      -1.65303796      -0.52415786        6 
C      -1.48635369      -0.74756532      -1.73872960        6 
C      -2.01186172       0.41197835      -1.32986352        6 
C      -2.20442076       0.31912774       0.17775923        6 
C      -2.59006448      -1.17280808       0.29300696        6 
C      -0.78773286       0.52779312       2.35092499        6 
H       0.57335594       2.88720265      -2.03166177        1 
H       3.72572958      -0.67385397      -0.43274619        1 
H      -2.15364838       1.31212542      -1.91403592        1 
H       2.00222626       1.84407789      -2.30669334        1 
H       1.94209942       2.95205216      -0.89756050        1 
H       3.94360254      -0.14563867       1.26376921        1 
H       3.68424308      -1.87627658       0.87704614        1 
H      -2.86140686       1.05968996       0.63026835        1 
H      -1.26808478      -2.71838225      -0.72246046        1 
H      -1.44140678      -0.21743938       2.81004328        1 
H       0.20922328       0.42020233       2.78534458        1 
H      -1.16572408       1.52153755       2.59282234        1 
H      -3.53751397      -1.38790104      -0.20298423        1 
H      -2.61757114      -1.55614539       1.31615696        1 
H      -1.11714227      -0.99256471      -2.72542559        1 
H      -0.33398538      -1.70188469       1.33652456        1 
