32
Lattice="0.0 0.0 0.0 0.0 0.0 0.0 0.0 0.0 0.0" Properties=species:S:1:pos:R:3:Z:I:1 pbc="F F F"
C       0.65727584      -0.71946117       0.48004043        6 
C      -0.85918533      -0.39649601       0.79696207        6 
C       1.65261850       0.37381313       0.14774942        6 
C      -1.39471534       1.01178513       0.48107204        6 
O       2.89477144      -0.06398323       0.49059316        8 
O       1.46858127       1.44666667      -0.36710351        8 
O      -1.21952632       1.38809102      -0.78870531        8 
O      -2.02305726       1.67278176       1.27820610        8 
C      -1.66829768       2.70580633      -1.13824767        6 
C       3.98274945       0.82221285       0.17479584        6 
C       0.59306788      -1.88176993      -0.59034368        6 
C      -0.04031180      -1.34791091      -1.85914155        6 
C      -1.33158287      -1.12705994      -1.59636896        6 
C      -1.57738932      -1.48768731      -0.13867394        6 
C      -0.59621680      -2.67688975      -0.00875310        6 
C      -1.15698186      -0.66875413       2.28050375        6 
H      -2.73771022       2.81318544      -0.94951510        1 
H       3.87500168       1.76680614       0.71048455        1 
H      -2.05942193      -0.66348242      -2.24600044        1 
H      -1.44958373       2.81040300      -2.19882853        1 
H      -1.11977274       3.45252595      -0.56262451        1 
H       4.88279201       0.30205806       0.49565920        1 
H       4.01596811       1.02210039      -0.89757990        1 
H      -2.61500141      -1.65514759       0.14924495        1 
H       1.54456375      -2.40084012      -0.69513610        1 
H      -0.82922024      -1.66780812       2.56998506        1 
H      -0.64163099       0.05596884       2.91448868        1 
H      -2.22424002      -0.57836414       2.48587059        1 
H      -0.88489077      -3.51385817      -0.64608170        1 
H      -0.44003002      -3.03248233       1.01091182        1 
H       0.49635559      -1.09338960      -2.76308164        1 
H       1.06844411      -1.17796765       1.38204379        1 
