32
Lattice="0.0 0.0 0.0 0.0 0.0 0.0 0.0 0.0 0.0" Properties=species:S:1:pos:R:3:Z:I:1 pbc="F F F"
C       0.09347765      -1.01892491       0.80777814        6 
C      -1.03786406       0.11125188       0.69002595        6 
C       1.53465080      -0.55932084       0.69959016        6 
C      -0.49985224       1.49712486       0.30216377        6 
O       2.12968951      -0.93997180      -0.45281867        8 
O       2.10426390       0.07002109       1.55618229        8 
O      -0.68673728       1.81271821      -0.99608371        8 
O       0.00718651       2.26131764       1.08500254        8 
C      -0.19949900       3.10197448      -1.40898989        6 
C       3.49810590      -0.52741082      -0.61914635        6 
C      -0.40056254      -2.13099031      -0.17759314        6 
C      -0.35113884      -1.59383378      -1.59939024        6 
C      -1.30997015      -0.67274227      -1.71126765        6 
C      -2.00988929      -0.56529233      -0.36188651        6 
C      -1.92327189      -2.04871463       0.07903949        6 
C      -1.73090341       0.31299350       2.05281116        6 
H      -0.70155975       3.89669180      -0.85527119        1 
H       4.12267185      -0.94637392       0.17129121        1 
H      -1.51278872      -0.03522533      -2.55817742        1 
H      -0.42728188       3.16929378      -2.47080634        1 
H       0.87590108       3.17443869      -1.24059533        1 
H       3.80022248      -0.91079031      -1.59152922        1 
H       3.57229053       0.56068932      -0.59329703        1 
H      -2.99688924      -0.10310187      -0.37270076        1 
H       0.08192644      -3.09319997      -0.00871509        1 
H      -2.13496435      -0.62601626       2.43093036        1 
H      -1.01927682       0.70806967       2.77787218        1 
H      -2.55527614       1.02611668       1.96258706        1 
H      -2.49105894      -2.70601108      -0.58073012        1 
H      -2.21448917      -2.23498954       1.11446708        1 
H       0.39549436      -1.86074377      -2.33258028        1 
H       0.02979719      -1.40542627       1.82864309        1 
