32
Lattice="0.0 0.0 0.0 0.0 0.0 0.0 0.0 0.0 0.0" Properties=species:S:1:pos:R:3:Z:I:1 pbc="F F F"
C      -0.46022288       0.66467833       0.73239015        6 
C       1.04809074       0.21478224       0.61313058        6 
C      -1.51882832      -0.17666110       0.06009485        6 
C       1.28200597      -1.06253150      -0.19724909        6 
O      -2.73680874       0.14056997       0.56244153        8 
O      -1.36325659      -0.99082430      -0.81557819        8 
O       0.87521169      -2.15125298       0.48893165        8 
O       1.79816693      -1.12252538      -1.28486807        8 
C       0.89898189      -3.39244413      -0.23697589        6 
C      -3.86008540      -0.54334527      -0.02211756        6 
C      -0.44837781       2.12058583       0.09984098        6 
C      -0.16320175       1.95827472      -1.38462750        6 
C       1.10833960       1.56631214      -1.50535344        6 
C       1.69527333       1.46618832      -0.10450671        6 
C       0.92727803       2.62048562       0.58385757        6 
C       1.66087496      -0.00388810       2.01439678        6 
H       0.22950081      -3.32631545      -1.09582789        1 
H      -3.76668559      -1.62107388       0.12110596        1 
H       1.61626770       1.25426014      -2.40474800        1 
H       0.55005443      -4.14682382       0.46539574        1 
H       1.90988615      -3.62182818      -0.57667130        1 
H      -4.73495868      -0.16250640       0.50039697        1 
H      -3.92711778      -0.32868890      -1.08989533        1 
H       2.78253501       1.47030426      -0.04121197        1 
H      -1.32837023       2.70152169       0.37127395        1 
H       1.58393243       0.89979753       2.61993599        1 
H       1.15282883      -0.81476524       2.53698351        1 
H       2.71923754      -0.26671964       1.93200849        1 
H       1.18025679       3.59384352       0.16174665        1 
H       1.02879468       2.65708895       1.66998323        1 
H      -0.90470811       2.02488171      -2.16980268        1 
H      -0.73737905       0.74449248       1.78537635        1 
