32
Lattice="0.0 0.0 0.0 0.0 0.0 0.0 0.0 0.0 0.0" Properties=species:S:1:pos:R:3:Z:I:1 pbc="F F F"
C       0.18116685       1.10354257       0.36886678        6 
C       0.72870416      -0.28779066       0.83715934        6 
C      -1.27227463       1.34126190       0.03213200        6 
C       0.16234425      -1.54534888       0.17148412        6 
O      -2.09323177       0.54073066       0.74416777        8 
O      -1.66973773       2.29500331      -0.59513775        8 
O      -0.82682583      -1.32157210      -0.70798025        8 
O       0.65698559      -2.63819441       0.33430804        8 
C      -1.26629462      -2.45633138      -1.47371451        6 
C      -3.50117707       0.79365424       0.60740785        6 
C       1.27372674       1.67847292      -0.58359935        6 
C       1.48784495       0.72030844      -1.74288070        6 
C       2.08801021      -0.37280975      -1.26096269        6 
C       2.22678186      -0.19000516       0.24617144        6 
C       2.50558381       1.32709017       0.29040292        6 
C       0.70567944      -0.46804017       2.35809830        6 
H      -0.45344297      -2.82635141      -2.10133710        1 
H      -3.81205604       0.66027832      -0.43021836        1 
H       2.31477618      -1.28812035      -1.79153942        1 
H      -2.08616724      -2.09056178      -2.08818760        1 
H      -1.60475292      -3.25695253      -0.81504189        1 
H      -3.99052296       0.06246685       1.24753242        1 
H      -3.74522117       1.80843798       0.92603050        1 
H       2.91466146      -0.86313818       0.75331118        1 
H       1.10699324       2.72219240      -0.83990040        1 
H       1.29586647       0.31261701       2.84409741        1 
H      -0.31821454      -0.40796691       2.73512927        1 
H       1.12317118      -1.43853379       2.63051301        1 
H       3.45099456       1.57829751      -0.19227575        1 
H       2.47601417       1.76663059       1.29060845        1 
H       1.13229963       0.88528274      -2.75114307        1 
H       0.24960369       1.73332341       1.26787489        1 
