32
Lattice="0.0 0.0 0.0 0.0 0.0 0.0 0.0 0.0 0.0" Properties=species:S:1:pos:R:3:Z:I:1 pbc="F F F"
C      -0.12438083      -1.00262444       0.78303820        6 
C      -1.09867579       0.24747277       0.61523453        6 
C       1.39618319      -1.00572614       0.81842942        6 
C      -0.58634787       1.64677851       0.25542395        6 
O       2.00737362      -0.49557654      -0.25996584        8 
O       2.00073271      -1.60304936       1.68408527        8 
O       0.54242038       1.66560965      -0.45868696        8 
O      -1.19815490       2.65406171       0.53596431        8 
C       0.99582560       2.95386383      -0.90622793        6 
C       3.43567376      -0.64844144      -0.30654502        6 
C      -0.62550507      -1.98632366      -0.36430799        6 
C      -0.34399360      -1.33238933      -1.70603381        6 
C      -1.18997530      -0.30585893      -1.83629699        6 
C      -2.03823168      -0.25051465      -0.57901236        6 
C      -2.14707885      -1.75856566      -0.26514144        6 
C      -1.92275519       0.41260025       1.91133735        6 
H       0.25878235       3.40859059      -1.57048572        1 
H       3.71207810      -1.70420156      -0.28794640        1 
H      -1.20207806       0.43530556      -2.62414670        1 
H       1.92387221       2.75940930      -1.43983909        1 
H       1.16926860       3.61773197      -0.05822303        1 
H       3.74299806      -0.18797961      -1.24341056        1 
H       3.90377850      -0.14418472       0.54034572        1 
H      -2.96069410       0.32596653      -0.63504310        1 
H      -0.25804618      -3.00312686      -0.22926790        1 
H      -2.40092534      -0.52483511       2.19429059        1 
H      -1.27844214       0.72309515       2.73823178        1 
H      -2.69021311       1.17468009       1.78232077        1 
H      -2.69756640      -2.29563113      -1.03912020        1 
H      -2.57084976      -1.99418286       0.71196556        1 
H       0.46911646      -1.59771325      -2.36633330        1 
H      -0.37998873      -1.46135689       1.73681442        1 
