32
Lattice="0.0 0.0 0.0 0.0 0.0 0.0 0.0 0.0 0.0" Properties=species:S:1:pos:R:3:Z:I:1 pbc="F F F"
C       0.90789937      -0.72846888       0.75104658        6 
C      -0.66829828      -0.64045193       0.68707082        6 
C       1.77647496       0.49064830       0.51855228        6 
C      -1.22206400       0.75769338       0.43320065        6 
O       1.39726369       1.22474645      -0.54251308        8 
O       2.78735054       0.70688921       1.14641777        8 
O      -2.25432873       0.73904320      -0.43593006        8 
O      -0.84839487       1.75806291       0.99420052        8 
C      -2.89149145       2.00449461      -0.68833684        6 
C       2.18236166       2.39472489      -0.82187942        6 
C       1.22233099      -1.84529299      -0.33556864        6 
C       0.83303992      -1.29834769      -1.70055407        6 
C      -0.50048990      -1.22923340      -1.74004787        6 
C      -1.02521786      -1.72472098      -0.40183714        6 
C       0.03773869      -2.80382011      -0.08750605        6 
C      -1.27707068      -1.01812226       2.06320132        6 
H      -3.28358558       2.42785118       0.23758169        1 
H       3.22223004       2.12465044      -1.01227293        1 
H      -1.11476742      -0.79547705      -2.51611732        1 
H      -3.69915933       1.78824404      -1.38436399        1 
H      -2.18020738       2.70388615      -1.13026697        1 
H       1.73280211       2.83990003      -1.70724137        1 
H       2.13509883       3.08753390       0.01936391        1 
H      -2.07153932      -2.02398496      -0.37778967        1 
H       2.22968065      -2.24834886      -0.24082464        1 
H      -0.95461457      -2.01100113       2.38006865        1 
H      -0.96909123      -0.29957451       2.82538968        1 
H      -2.36948402      -1.01836991       2.01155718        1 
H       0.01344828      -3.62624629      -0.80388975        1 
H      -0.00170351      -3.20420389       0.92738995        1 
H       1.53033043      -0.93211335      -2.44117636        1 
H       1.20890222      -1.10555280       1.72791663        1 
