32
Lattice="0.0 0.0 0.0 0.0 0.0 0.0 0.0 0.0 0.0" Properties=species:S:1:pos:R:3:Z:I:1 pbc="F F F"
C      -0.80437159      -0.42075553      -0.61930190        6 
C       0.76817782      -0.23472797      -0.65852114        6 
C      -1.78601132       0.49670995       0.08797594        6 
C       1.39320368       0.95563693       0.07443435        6 
O      -2.88283505       0.64056861      -0.71554566        8 
O      -1.71497137       0.99729562       1.17595031        8 
O       2.70842886       1.05528006      -0.27278679        8 
O       0.89591625       1.67922969       0.89209748        8 
C       3.45189569       2.08601523       0.39859172        6 
C      -3.96725798       1.39972729      -0.15607272        6 
C      -0.95076688      -1.85381314       0.06856238        6 
C      -0.47254124      -1.70220327       1.50510608        6 
C       0.85435062      -1.54784073       1.46921940        6 
C       1.27932946      -1.58617202       0.01072891        6 
C       0.25128450      -2.59435652      -0.54646455        6 
C       1.20842455      -0.15919831      -2.14438447        6 
H       3.01931170       3.06674047       0.19374705        1 
H      -3.64177837       2.41306538       0.08440657        1 
H       1.50524773      -1.29830884       2.29622227        1 
H       4.46188052       2.02213427      -0.00108440        1 
H       3.45307371       1.91864732       1.47712011        1 
H      -4.73826608       1.41581665      -0.92383535        1 
H      -4.34217073       0.92363575       0.75222298        1 
H       2.33352216      -1.76881409      -0.18898159        1 
H      -1.93937500      -2.28748853      -0.07816561        1 
H       0.74813865      -0.95639589      -2.72831395        1 
H       0.89928251       0.79240433      -2.58609759        1 
H       2.29042484      -0.24007722      -2.23719576        1 
H       0.38456449      -3.59013494      -0.12099977        1 
H       0.22250076      -2.66563375      -1.63490514        1 
H      -1.11990085      -1.60187780       2.36438780        1 
H      -1.15543184      -0.50219206      -1.64601741        1 
