32
Lattice="0.0 0.0 0.0 0.0 0.0 0.0 0.0 0.0 0.0" Properties=species:S:1:pos:R:3:Z:I:1 pbc="F F F"
C      -0.74546999       0.35482455       0.92184841        6 
C       0.70686733       0.82933905       0.47974732        6 
C      -1.04283504      -1.10497926       0.65087465        6 
C       1.41178881      -0.23224952      -0.37408719        6 
O      -2.17160740      -1.29296199      -0.05398275        8 
O      -0.36661397      -2.01201261       1.07922522        8 
O       2.57584022      -0.64327593       0.16210037        8 
O       0.99640689      -0.66194856      -1.42478144        8 
C       3.24730103      -1.70385138      -0.54148481        6 
C      -2.50850698      -2.66007684      -0.35768459        6 
C      -1.69900634       1.42626250       0.28051559        6 
C      -1.63281610       1.28674634      -1.23131783        6 
C      -0.42291367       1.69697170      -1.61816862        6 
C       0.34072163       2.12170717      -0.37333646        6 
C      -0.83177998       2.69077471       0.46463288        6 
C       1.55666255       1.20287281       1.70725137        6 
H       2.60594476      -2.58490357      -0.58741463        1 
H      -2.64221088      -3.23423986       0.56023730        1 
H       0.00263539       1.63049293      -2.60884129        1 
H       4.14465820      -1.91115177       0.03746237        1 
H       3.50456386      -1.39025162      -1.55426029        1 
H      -3.43890430      -2.60970943      -0.91914501        1 
H      -1.72046565      -3.11509411      -0.95893132        1 
H       1.20415521       2.76754269      -0.53410792        1 
H      -2.69446711       1.43045899       0.72201881        1 
H       1.05505735       1.96308395       2.30732865        1 
H       1.73046966       0.32987206       2.33791799        1 
H       2.52960038       1.59458367       1.40484256        1 
H      -1.27806097       3.57023902      -0.00129502        1 
H      -0.58326430       2.91581535       1.50311795        1 
H      -2.39219753       0.81727218      -1.83921889        1 
H      -0.79426393       0.43971984       2.01152938        1 
