32
Lattice="0.0 0.0 0.0 0.0 0.0 0.0 0.0 0.0 0.0" Properties=species:S:1:pos:R:3:Z:I:1 pbc="F F F"
C      -0.70448025       0.35019767      -1.00455488        6 
C      -0.34845059      -1.08089632      -0.38104002        6 
C       0.37118546       1.40124947      -0.81268996        6 
C       0.90730663      -1.02179679       0.50268729        6 
O       0.08405340       2.30580578       0.13739928        8 
O       1.38652334       1.43172908      -1.47051445        8 
O       1.99793068      -1.46561091      -0.15124120        8 
O       0.95547705      -0.62111429       1.64141467        8 
C       3.24515107      -1.36931838       0.55719530        6 
C       1.10112717       3.29011320       0.39925250        6 
C      -2.14214359       0.63921490      -0.43573445        6 
C      -2.06469662       0.80617120       1.07480288        6 
C      -1.78087720      -0.38908106       1.59681879        6 
C      -1.66634651      -1.37921347       0.44345654        6 
C      -2.73652852      -0.78493472      -0.50753007        6 
C      -0.15380106      -2.12406683      -1.49881094        6 
H       3.46698664      -0.32695728       0.79026213        1 
H       1.31292044       3.87048993      -0.50005422        1 
H      -1.55560916      -0.61762187       2.62746084        1 
H       3.99276079      -1.77569641      -0.12022283        1 
H       3.20576542      -1.94626840       1.48230206        1 
H       0.69378628       3.92528855       1.18235487        1 
H       2.01624218       2.80251357       0.73808834        1 
H      -1.75871456      -2.43380372       0.70427684        1 
H      -2.66280288       1.42462708      -0.98347236        1 
H      -1.05689449      -2.21520840      -2.10316499        1 
H       0.67082450      -1.84530276      -2.15438810        1 
H       0.06861460      -3.10723503      -1.07665131        1 
H      -3.73807565      -0.83889965      -0.07944216        1 
H      -2.74966571      -1.21366552      -1.51137478        1 
H      -2.11473957       1.75291818       1.59134015        1 
H      -0.76242102       0.21863789      -2.08715295        1 
