32
Lattice="0.0 0.0 0.0 0.0 0.0 0.0 0.0 0.0 0.0" Properties=species:S:1:pos:R:3:Z:I:1 pbc="F F F"
C      -0.25281136      -1.07706403       0.51356470        6 
C      -0.76843292       0.39060063       0.80999659        6 
C       1.14474952      -1.28458325      -0.02247545        6 
C      -0.09836919       1.55977371       0.08193726        6 
O       2.06237265      -0.96553582       0.91823654        8 
O       1.42715735      -1.78400844      -1.08408873        8 
O       1.11317088       1.28710495      -0.42757456        8 
O      -0.63411496       2.63667232      -0.04405283        8 
C       1.72401979       2.32783311      -1.21256685        6 
C       3.43622213      -1.08784531       0.52084361        6 
C      -1.39428344      -1.71435293      -0.33593337        6 
C      -1.53805696      -0.91633868      -1.62220980        6 
C      -2.06927267       0.26892901      -1.30390776        6 
C      -2.24560477       0.29680840       0.21094222        6 
C      -2.60591186      -1.18115338       0.46265247        6 
C      -0.75871070       0.71334548       2.31262369        6 
H       1.09233445       2.57241128      -2.06761305        1 
H       3.64654817      -0.42286620      -0.31900955        1 
H      -2.23260999       1.11706957      -1.95451823        1 
H       2.67439459       1.91734103      -1.54614748        1 
H       1.87759842       3.22236822      -0.60805923        1 
H       4.02008194      -0.79665951       1.39149847        1 
H       3.66503392      -2.11427330       0.23001459        1 
H      -2.90615921       1.06503086       0.60672063        1 
H      -1.29379383      -2.79261754      -0.44924749        1 
H      -1.37571881      -0.00276190       2.85979173        1 
H       0.25749087       0.66083108       2.71143974        1 
H      -1.15511753       1.71527161       2.48857361        1 
H      -3.56108903      -1.45214029       0.01042954        1 
H      -2.60353036      -1.47559374       1.51583985        1 
H      -1.17797154      -1.24356163      -2.58732610        1 
H      -0.24103896      -1.58691651       1.48247774        1 
