32
Lattice="0.0 0.0 0.0 0.0 0.0 0.0 0.0 0.0 0.0" Properties=species:S:1:pos:R:3:Z:I:1 pbc="F F F"
C      -0.57702201      -0.95798248       0.71793345        6 
C      -0.70873623       0.62571992       0.77985209        6 
C       0.68855939      -1.65260811       0.24863702        6 
C       0.54719352       1.42039948       0.38398282        6 
O       1.78822948      -0.88461233       0.30600938        8 
O       0.71177764      -2.81579604      -0.07991453        8 
O       0.71043329       1.54145736      -0.94762356        8 
O       1.31075600       1.91593754       1.17665826        8 
C       1.91003968       2.20470337      -1.37520598        6 
C       3.02713539      -1.50879675      -0.07693271        6 
C      -1.81008874      -1.39933959      -0.15821334        6 
C      -1.51916979      -0.94013268      -1.57864758        6 
C      -1.60598773       0.39293478      -1.58826023        6 
C      -1.95880709       0.84735016      -0.17721071        6 
C      -2.85673924      -0.34284856       0.24851820        6 
C      -1.03813810       1.06589399       2.22133082        6 
H       1.95027991       3.22265459      -0.98509659        1 
H       2.98432764      -1.82335528      -1.12079999        1 
H      -1.38196039       1.05907722      -2.40775375        1 
H       1.86620013       2.21090483      -2.46258298        1 
H       2.78666506       1.65440186      -1.02952276        1 
H       3.78904912      -0.74609963       0.06738677        1 
H       3.22756666      -2.37653932       0.55270906        1 
H      -2.37702791       1.85020492      -0.08991118        1 
H      -2.06413036      -2.44893955      -0.03057538        1 
H      -1.89409525       0.52311434       2.62055660        1 
H      -0.18303372       0.89005930       2.87444864        1 
H      -1.26239087       2.13476030       2.25655157        1 
H      -3.76012152      -0.40875108      -0.35921227        1 
H      -3.13018064      -0.36082188       1.30375398        1 
H      -1.20190239      -1.58904158      -2.38355895        1 
H      -0.71669798      -1.33397663       1.73748180        1 
