32
Lattice="0.0 0.0 0.0 0.0 0.0 0.0 0.0 0.0 0.0" Properties=species:S:1:pos:R:3:Z:I:1 pbc="F F F"
C       0.73331835      -0.89734999      -0.63364502        6 
C       0.72317072       0.68810184      -0.70995975        6 
C      -0.50864835      -1.73651714      -0.41988646        6 
C      -0.61860555       1.39070843      -0.43483364        6 
O      -1.59944526      -1.05446726      -0.03421110        8 
O      -0.50961544      -2.93252635      -0.60139015        8 
O      -0.92980768       1.51083903       0.86728732        8 
O      -1.29611911       1.88806372      -1.30412363        8 
C      -2.19154648       2.13137019       1.15440996        6 
C      -2.79962560      -1.82768615       0.15399989        6 
C       1.84767349      -1.21985348       0.43741347        6 
C       1.35615435      -0.73308349       1.78950635        6 
C       1.36289395       0.60235572       1.75562821        6 
C       1.84327933       1.03125753       0.37290821        6 
C       2.86150373      -0.10592472       0.10520519        6 
C       1.15821970       1.14157357      -2.11763653        6 
H      -2.21238549       3.15720372       0.78295791        1 
H      -2.65325273      -2.56914848       0.94046027        1 
H       1.00289440       1.27884295       2.51562332        1 
H      -2.28402602       2.11268845       2.23854410        1 
H      -3.00337903       1.56892016       0.69016250        1 
H      -3.56469432      -1.10940938       0.43972499        1 
H      -3.07457866      -2.33417536      -0.77195207        1 
H       2.20139820       2.05719399       0.28863863        1 
H       2.18538946      -2.25281819       0.37938364        1 
H       2.11587068       0.70158153      -2.39381336        1 
H       0.41513616       0.84719355      -2.85988166        1 
H       1.25166393       2.22857505      -2.16372996        1 
H       3.69261921      -0.08478194       0.81083986        1 
H       3.25114858      -0.14586157      -0.91315314        1 
H       0.98058589      -1.37020972       2.57921732        1 
H       1.10726843      -1.26266012      -1.59391681        1 
