32
Lattice="0.0 0.0 0.0 0.0 0.0 0.0 0.0 0.0 0.0" Properties=species:S:1:pos:R:3:Z:I:1 pbc="F F F"
C      -0.75592160       0.61277986       0.90691647        6 
C       0.79812854       0.55277404       0.58087169        6 
C      -1.54178867      -0.67435200       0.73755122        6 
C       1.22533550      -0.71772392      -0.14983793        6 
O      -2.22777765      -0.74595368      -0.41352425        8 
O      -1.63464222      -1.50066840       1.61772634        8 
O       2.52758631      -1.00822873       0.06647234        8 
O       0.53663605      -1.36806034      -0.89817274        8 
C       3.03706466      -2.15942807      -0.63169703        6 
C      -2.92390565      -1.97795138      -0.66140069        6 
C      -1.24194354       1.85172273       0.06421002        6 
C      -1.06897205       1.54130856      -1.41413103        6 
C       0.24028803       1.52721061      -1.67524903        6 
C       0.96709717       1.81808023      -0.37492722        6 
C      -0.03803359       2.79745222       0.27529793        6 
C       1.61721973       0.71806240       1.87646490        6 
H       2.46596629      -3.04962767      -0.36480532        1 
H      -3.64578564      -2.18075632       0.13098810        1 
H       0.71892971       1.23366243      -2.59962486        1 
H       4.07231745      -2.25625308      -0.31207087        1 
H       2.97954021      -2.00807313      -1.71087544        1 
H      -3.42797530      -1.83874518      -1.61567342        1 
H      -2.20900869      -2.79953175      -0.72456407        1 
H       2.00699914       2.13342639      -0.45473966        1 
H      -2.22349099       2.21468579       0.36748473        1 
H       1.29572589       1.60461176       2.42374303        1 
H       1.47502306      -0.14622273       2.52973343        1 
H       2.68192751       0.81016917       1.66293966        1 
H      -0.13101718       3.72275926      -0.29485942        1 
H       0.16679983       3.03335406       1.32127549        1 
H      -1.87177102       1.26999521      -2.08263827        1 
H      -0.85282524       0.84572414       1.96773600        1 
