32
Lattice="0.0 0.0 0.0 0.0 0.0 0.0 0.0 0.0 0.0" Properties=species:S:1:pos:R:3:Z:I:1 pbc="F F F"
C      -0.21290389       0.85102474       0.86849861        6 
C       1.16659519       0.10352843       0.59573201        6 
C      -1.47453075       0.02981517       0.67302869        6 
C       1.00678874      -1.37420335       0.20790220        6 
O      -2.44143843       0.72263665       0.03336046        8 
O      -1.64451217      -1.08583757       1.10069046        8 
O       0.60763907      -1.54872628      -1.06837699        8 
O       1.16842303      -2.29553103       0.96773031        8 
C       0.29920105      -2.90343176      -1.44540258        6 
C      -3.69209554       0.03470895      -0.15024156        6 
C      -0.10765458       2.14012328      -0.03042355        6 
C      -0.19436999       1.68802161      -1.48129843        6 
C       0.93396956       1.03151071      -1.76053881        6 
C       1.80031959       1.04305003      -0.50934207        6 
C       1.40551062       2.43413060       0.05340805        6 
C       2.02928961       0.10346857       1.87535792        6 
H       1.18223450      -3.53795765      -1.35667175        1 
H      -4.11812307      -0.25025083       0.81274675        1 
H       1.17307800       0.49529616      -2.66706967        1 
H      -0.02927791      -2.84710703      -2.48148128        1 
H      -0.49293986      -3.29604359      -0.80658716        1 
H      -4.33961581       0.74282629      -0.66291566        1 
H      -3.54654814      -0.86085999      -0.75653905        1 
H       2.86179657       0.84616450      -0.66031592        1 
H      -0.79331167       2.92994314       0.27030161        1 
H       2.14951678       1.10857942       2.27796524        1 
H       1.56853411      -0.52310115       2.63893078        1 
H       3.02186182      -0.30482796       1.66932356        1 
H       1.70299056       3.24423701      -0.61357606        1 
H       1.77095442       2.64074048       1.05931389        1 
H      -1.06843039       1.79300262      -2.10765100        1 
H      -0.23262198       1.13433820       1.92564875        1 
