32
Lattice="0.0 0.0 0.0 0.0 0.0 0.0 0.0 0.0 0.0" Properties=species:S:1:pos:R:3:Z:I:1 pbc="F F F"
C       0.70484244      -0.92608543      -0.62917948        6 
C       0.78524723       0.65885570      -0.69039207        6 
C      -0.59333854      -1.69456018      -0.51563310        6 
C      -0.51487972       1.44793423      -0.45597016        6 
O      -1.58299103      -1.05074225       0.12477453        8 
O      -0.71541676      -2.81478602      -0.95740403        8 
O      -0.90859594       1.51414581       0.82544878        8 
O      -1.07819732       2.06637743      -1.33055969        8 
C      -2.13439942       2.21815542       1.07293660        6 
C      -2.82910305      -1.76107903       0.24648008        6 
C       1.73887149      -1.31380193       0.50382717        6 
C       1.21650199      -0.79752948       1.83172349        6 
C       1.31121546       0.53471748       1.80357420        6 
C       1.87631189       0.93252769       0.44546221        6 
C       2.83303581      -0.26524505       0.21774654        6 
C       1.31148855       1.09400307      -2.07174639        6 
H      -2.04847376       3.26459753       0.77610513        1 
H      -2.69000939      -2.68269619       0.81331182        1 
H       0.96314665       1.23149382       2.55088237        1 
H      -2.30327767       2.13538832       2.14490388        1 
H      -2.95413799       1.75650723       0.51973791        1 
H      -3.49561325      -1.08312194       0.77544707        1 
H      -3.22793770      -2.00181005      -0.73980813        1 
H       2.29826923       1.93530271       0.37757319        1 
H       2.01747016      -2.36560337       0.45801932        1 
H       2.25882219       0.60642129      -2.30023141        1 
H       0.59452477       0.83802642      -2.85317525        1 
H       1.46069663       2.17480107      -2.10746206        1 
H       3.63455819      -0.29443721       0.95653245        1 
H       3.25957458      -0.32946275      -0.78430700        1 
H       0.76558331      -1.40846141       2.60209787        1 
H       1.11872286      -1.30286846      -1.56664335        1 
