32
Lattice="0.0 0.0 0.0 0.0 0.0 0.0 0.0 0.0 0.0" Properties=species:S:1:pos:R:3:Z:I:1 pbc="F F F"
C       0.43811595      -0.79500025       0.74468686        6 
C      -1.06370405      -0.30269251       0.66556469        6 
C       1.52858525       0.23127965       0.51635267        6 
C      -1.26887489       1.17246796       0.27777035        6 
O       2.69570568      -0.37444934       0.20272649        8 
O       1.42168791       1.42664506       0.63675797        8 
O      -0.90746330       1.44951921      -0.98776934        8 
O      -1.75760784       1.99697527       1.01143975        8 
C      -0.97487843       2.83207014      -1.37229875        6 
C       3.82511056       0.49767215       0.01081037        6 
C       0.48359986      -2.04779103      -0.21074351        6 
C       0.32150480      -1.53064742      -1.62987592        6 
C      -0.93675664      -1.09730470      -1.74987380        6 
C      -1.63913757      -1.32284190      -0.41559479        6 
C      -0.92673882      -2.62747803       0.02028159        6 
C      -1.76655566      -0.49369028       2.02326778        6 
H      -1.99826721       3.20336586      -1.29999412        1 
H       4.03462674       1.05833008       0.92310203        1 
H      -1.37313979      -0.58418645      -2.59405505        1 
H      -0.62824184       2.86121118      -2.40377310        1 
H      -0.32421309       3.42707313      -0.73029687        1 
H       4.65750004      -0.15709070      -0.23735020        1 
H       3.62962479       1.19748314      -0.80295827        1 
H      -2.72865505      -1.32940363      -0.44235805        1 
H       1.33494647      -2.69782857      -0.02248111        1 
H      -1.66465719      -1.51725256       2.38326199        1 
H      -1.34128907       0.17968290       2.76867980        1 
H      -2.82980409      -0.25992051       1.94259133        1 
H      -1.14562072      -3.45712428      -0.65354196        1 
H      -1.12276082      -2.93758151       1.04721807        1 
H       1.12236856      -1.43691036      -2.35075495        1 
H       0.61688092      -1.14218277       1.76927995        1 
