32
Lattice="0.0 0.0 0.0 0.0 0.0 0.0 0.0 0.0 0.0" Properties=species:S:1:pos:R:3:Z:I:1 pbc="F F F"
C      -0.53284808      -0.98083804       0.70079451        6 
C      -0.70035275       0.60110044       0.80067365        6 
C       0.72645748      -1.60684774       0.12541698        6 
C       0.53262269       1.41690687       0.38034402        6 
O       1.83992096      -0.91930867       0.42750170        8 
O       0.73860939      -2.65561685      -0.47478085        8 
O       0.62085067       1.59826378      -0.95286898        8 
O       1.36417353       1.83744296       1.14618343        8 
C       1.80668638       2.26136681      -1.42099189        6 
C       3.08491726      -1.47534619      -0.03162509        6 
C      -1.80056130      -1.43009093      -0.11574814        6 
C      -1.59220979      -0.94297320      -1.54220993        6 
C      -1.70392053       0.38802823      -1.52569884        6 
C      -1.99524409       0.81290500      -0.09178336        6 
C      -2.84765169      -0.40172453       0.35837592        6 
C      -0.97375495       1.00464937       2.26581536        6 
H       1.88694663       3.26031248      -0.99023786        1 
H       3.08996255      -1.54662325      -1.12050640        1 
H      -1.53176013       1.07159877      -2.34352021        1 
H       1.69976203       2.31617971      -2.50255059        1 
H       2.69182233       1.68274560      -1.15124247        1 
H       3.85063124      -0.78498739       0.31499984        1 
H       3.23839893      -2.46817496       0.39336390        1 
H      -2.42803638       1.80543595       0.03375233        1 
H      -2.03208815      -2.48607224       0.00399478        1 
H      -1.79674273       0.43344271       2.69302375        1 
H      -0.08402857       0.83833196       2.87339739        1 
H      -1.22342993       2.06678922       2.33267766        1 
H      -3.77797694      -0.47832496      -0.20587190        1 
H      -3.06935632      -0.44099534       1.42497360        1 
H      -1.30043284      -1.57393999      -2.36990039        1 
H      -0.59230147      -1.37627523       1.72074796        1 
