32
Lattice="0.0 0.0 0.0 0.0 0.0 0.0 0.0 0.0 0.0" Properties=species:S:1:pos:R:3:Z:I:1 pbc="F F F"
C      -0.76666420       0.45888346       0.95468210        6 
C       0.72930002       0.75587353       0.49282327        6 
C      -1.21494755      -0.97593708       0.76383148        6 
C       1.32346599      -0.40295966      -0.31273047        6 
O      -2.08222459      -1.14555844      -0.24458615        8 
O      -0.87057703      -1.87057109       1.50379228        8 
O       2.55859940      -0.74790412       0.10432262        8 
O       0.78412240      -0.94626705      -1.24798786        8 
C       3.17438411      -1.84317864      -0.59760260        6 
C      -2.47003916      -2.50164188      -0.52643581        6 
C      -1.59438592       1.58917280       0.23877191        6 
C      -1.52218743       1.38231896      -1.26577632        6 
C      -0.27376942       1.65540008      -1.65136088        6 
C       0.51294488       2.04645974      -0.41229963        6 
C      -0.60329896       2.76572340       0.38587999        6 
C       1.61100739       1.08313835       1.71243384        6 
H       2.57291693      -2.74664923      -0.48746012        1 
H      -2.94583362      -2.95570373       0.34405461        1 
H       0.15270465       1.50585320      -2.63312785        1 
H       4.14904671      -1.97223385      -0.13218796        1 
H       3.28020955      -1.60846807      -1.65773911        1 
H      -3.16924194      -2.43564255      -1.35728130        1 
H      -1.59348337      -3.08542127      -0.81039120        1 
H       1.44363712       2.58899628      -0.57873818        1 
H      -2.59105940       1.71739460       0.66006931        1 
H       1.17894467       1.90160207       2.28839968        1 
H       1.69986870       0.21668897       2.37019918        1 
H       2.61606244       1.37404955       1.40382845        1 
H      -0.94962072       3.66635842      -0.12214940        1 
H      -0.34433919       3.00625944       1.41826932        1 
H      -2.31774042       0.97008714      -1.86804377        1 
H      -0.80747759       0.61297735       2.03447017        1 
