32
Lattice="0.0 0.0 0.0 0.0 0.0 0.0 0.0 0.0 0.0" Properties=species:S:1:pos:R:3:Z:I:1 pbc="F F F"
C      -0.35426341      -1.14402182       0.66168566        6 
C      -0.89040524       0.35500363       0.77338916        6 
C       1.14690640      -1.29552163       0.54471706        6 
C       0.19542486       1.39614948       0.47329323        6 
O       1.60217668      -1.08475983      -0.70953311        8 
O       1.87308009      -1.52572763       1.48036360        8 
O       0.03718064       2.03928571      -0.69768046        8 
O       1.07462316       1.67740273       1.25307084        8 
C       1.03824589       3.02097956      -1.01995993        6 
C       3.03255413      -1.11187843      -0.86910812        6 
C      -1.27153352      -1.78187089      -0.43619665        6 
C      -1.04008378      -1.08864891      -1.76783437        6 
C      -1.54535910       0.14337831      -1.67098628        6 
C      -2.09655792       0.30758074      -0.26010246        6 
C      -2.61706099      -1.13330599      -0.03150814        6 
C      -1.38037766       0.65231748       2.20291312        6 
H       1.06471299       3.80533951      -0.26240322        1 
H       3.42950788      -2.09156342      -0.59895374        1 
H      -1.49077596       0.93318727      -2.40438051        1 
H       0.74400106       3.42638661      -1.98573149        1 
H       2.02064788       2.55084647      -1.08452269        1 
H       3.21046428      -0.90402626      -1.92224641        1 
H       3.49499372      -0.35084658      -0.23893770        1 
H      -2.80119869       1.12542064      -0.11275062        1 
H      -1.22471863      -2.87093374      -0.44301458        1 
H      -2.16426674      -0.04700942       2.49750505        1 
H      -0.55482838       0.57407297       2.91094279        1 
H      -1.78855245       1.66527166       2.26517474        1 
H      -3.42521399      -1.39240564      -0.71673490        1 
H      -2.92606729      -1.35167448       0.99303218        1 
H      -0.48308239      -1.50860468      -2.59296261        1 
H      -0.58303801      -1.62824400       1.61241169        1 
