32
Lattice="0.0 0.0 0.0 0.0 0.0 0.0 0.0 0.0 0.0" Properties=species:S:1:pos:R:3:Z:I:1 pbc="F F F"
C       0.78352099      -0.81394614       0.77616523        6 
C      -0.75270891      -0.44185573       0.69972985        6 
C       1.80040603       0.30311262       0.63136208        6 
C      -1.05158724       0.94345540       0.13404486        6 
O       2.15089278       0.54181689      -0.64553286        8 
O       2.31305529       0.85276467       1.57784673        8 
O      -2.36296868       1.03982191      -0.18595628        8 
O      -0.27666843       1.85569358      -0.00810484        8 
C      -2.79620061       2.30504807      -0.71676442        6 
C       2.99929253       1.68145327      -0.86046002        6 
C       0.89609239      -2.00651821      -0.24570514        6 
C       0.52893344      -1.50242971      -1.63339579        6 
C      -0.78581174      -1.26262587      -1.64308972        6 
C      -1.31499311      -1.57682581      -0.25294400        6 
C      -0.40073996      -2.76427139       0.11957571        6 
C      -1.39582961      -0.49455890       2.10264310        6 
H      -2.62514437       3.10253757       0.00775017        1 
H       3.92556662       1.58834792      -0.29210850        1 
H      -1.36680447      -0.80923993      -2.43509725        1 
H      -3.85973687       2.18719011      -0.91317711        1 
H      -2.25849408       2.53511644      -1.63793480        1 
H       3.20235440       1.69541896      -1.92950142        1 
H       2.47289251       2.58828365      -0.55872979        1 
H      -2.39091142      -1.71162818      -0.15958769        1 
H       1.83620627      -2.55125304      -0.16532355        1 
H      -1.25851758      -1.48175587       2.54763060        1 
H      -0.93226817       0.24061505       2.76549617        1 
H      -2.46604999      -0.28890164       2.04418296        1 
H      -0.57646584      -3.63205202      -0.51864880        1 
H      -0.45507453      -3.06750726       1.16802106        1 
H       1.24069762      -1.28869406      -2.41680335        1 
H       0.96954861      -1.20614919       1.77655633        1 
