32
Lattice="0.0 0.0 0.0 0.0 0.0 0.0 0.0 0.0 0.0" Properties=species:S:1:pos:R:3:Z:I:1 pbc="F F F"
C      -0.24214836       0.76628858       0.72020615        6 
C       1.05046038      -0.12123533       0.58809617        6 
C      -1.50709877       0.37696973      -0.01147366        6 
C       0.93114572      -1.46978968      -0.10908886        6 
O      -2.58070199       0.89159661       0.64083267        8 
O      -1.60211402      -0.23972951      -1.04218808        8 
O      -0.17798563      -2.13442822       0.26323453        8 
O       1.82924212      -1.98321663      -0.73455631        8 
C      -0.35855299      -3.44212737      -0.30429476        6 
C      -3.85821101       0.67802741       0.01533691        6 
C       0.25119825       2.14562321       0.07552646        6 
C       0.46832221       1.87936951      -1.40770132        6 
C       1.54755564       1.09983061      -1.52155610        6 
C       2.07348512       0.83919535      -0.12048814        6 
C       1.71442260       2.18184857       0.55698860        6 
C       1.55639615      -0.51278348       2.00623236        6 
H      -0.45756254      -3.36689929      -1.38813368        1 
H      -4.05430298      -0.38918906      -0.09891724        1 
H       1.92462438       0.62224446      -2.41498762        1 
H      -1.27814238      -3.82440483       0.13373682        1 
H       0.48505926      -4.08902672      -0.05903070        1 
H      -4.58794864       1.13237062       0.68223649        1 
H      -3.88965246       1.15357716      -0.96667258        1 
H       3.10019610       0.48664119      -0.04975517        1 
H      -0.39429515       2.98398818       0.33310343        1 
H       1.72075898       0.36937788       2.62612044        1 
H       0.82714073      -1.15000362       2.51062935        1 
H       2.49949402      -1.05947041       1.93151137        1 
H       2.26694754       3.01929136       0.12880040        1 
H       1.82317323       2.19123239       1.64297887        1 
H      -0.21803009       2.16260597      -2.19398262        1 
H      -0.49159203       0.92793691       1.76787573        1 
