32
Lattice="0.0 0.0 0.0 0.0 0.0 0.0 0.0 0.0 0.0" Properties=species:S:1:pos:R:3:Z:I:1 pbc="F F F"
C      -0.28114979       0.83292741       0.81702966        6 
C       1.15004616       0.17916345       0.61762399        6 
C      -1.48094092      -0.07045612       0.61459490        6 
C       1.12184041      -1.30469965       0.21663456        6 
O      -2.53228684       0.60785316       0.10597050        8 
O      -1.54034762      -1.23529433       0.92477932        8 
O       0.64592351      -1.51153537      -1.02635306        8 
O       1.47553959      -2.20582175       0.93597955        8 
C       0.43903667      -2.88657336      -1.39510592        6 
C      -3.74316300      -0.14910801      -0.07602182        6 
C      -0.23918822       2.11092960      -0.10220780        6 
C      -0.23340105       1.62686797      -1.54357788        6 
C       0.95174052       1.05236236      -1.76362486        6 
C       1.76350690       1.15067916      -0.47911464        6 
C       1.24284532       2.51720867       0.03938703        6 
C       1.96248939       0.24746400       1.92518623        6 
H       1.37577736      -3.44389258      -1.35220291        1 
H      -4.08638854      -0.55765023       0.87546867        1 
H       1.26579472       0.51755218      -2.64796251        1 
H       0.05551633      -2.85820835      -2.41332294        1 
H      -0.28689747      -3.34259050      -0.72055673        1 
H      -4.46849733       0.55647863      -0.47546192        1 
H      -3.57613121      -0.96712813      -0.77844649        1 
H       2.84160941       1.02811762      -0.58271100        1 
H      -0.99375838       2.85055138       0.15699929        1 
H       2.01081119       1.26475108       2.31302465        1 
H       1.51131553      -0.39226422       2.68425113        1 
H       2.98237182      -0.10775940       1.76295209        1 
H       1.50944675       3.33693083      -0.62907611        1 
H       1.54546765       2.76597770       1.05676064        1 
H      -1.08736874       1.65210435      -2.20590778        1 
H      -0.35876706       1.14668950       1.86423968        1 
