32
Lattice="0.0 0.0 0.0 0.0 0.0 0.0 0.0 0.0 0.0" Properties=species:S:1:pos:R:3:Z:I:1 pbc="F F F"
C      -0.64671198       0.32919351       0.81360914        6 
C       0.88548080       0.62863343       0.50076355        6 
C      -1.35470046      -0.92902868       0.30921461        6 
C       1.74922255      -0.36879932      -0.27343992        6 
O      -2.68589461      -0.66864673       0.18919068        8 
O      -0.90789940      -2.02809505       0.11521041        8 
O       1.69990284      -1.60109115       0.23947114        8 
O       2.55334830      -0.03490860      -1.11595483        8 
C       2.52391517      -2.59771669      -0.38499142        6 
C      -3.51094195      -1.77983003      -0.19901182        6 
C      -1.35269538       1.62235458       0.22878884        6 
C      -1.20669867       1.50270984      -1.28409080        6 
C       0.08022314       1.71539271      -1.57840343        6 
C       0.80707517       1.99489602      -0.27144394        6 
C      -0.30952713       2.71564533       0.51386648        6 
C       1.65790570       0.79009613       1.83975455        6 
H       2.29243309      -2.66931191      -1.44863668        1 
H      -3.44721579      -2.58316081       0.53710330        1 
H       0.56843577       1.60499030      -2.53634665        1 
H       2.27795999      -3.52915841       0.11969283        1 
H       3.58133668      -2.35590364      -0.26212428        1 
H      -4.52364838      -1.38460054      -0.24717968        1 
H      -3.20278965      -2.16414389      -1.17278359        1 
H       1.77525276       2.48348374      -0.35499618        1 
H      -2.36006560       1.76981411       0.60756854        1 
H       1.18117062       1.52924960       2.48401318        1 
H       1.69061267      -0.15962889       2.37606250        1 
H       2.68357005       1.11639355       1.64826752        1 
H      -0.58137200       3.66970699       0.05960716        1 
H      -0.09899675       2.86855452       1.57377968        1 
H      -1.99395976       1.18266156      -1.95335468        1 
H      -0.77536677       0.29846702       1.90043844        1 
