32
Lattice="0.0 0.0 0.0 0.0 0.0 0.0 0.0 0.0 0.0" Properties=species:S:1:pos:R:3:Z:I:1 pbc="F F F"
C       0.13735531       0.89786925       0.87737290        6 
C       1.17246983      -0.26459241       0.56149922        6 
C      -1.32001086       0.49058982       0.83787870        6 
C       0.53608029      -1.56672629       0.06754097        6 
O      -2.04718829       1.19661939      -0.04829355        8 
O      -1.79827697      -0.34174579       1.57304273        8 
O      -0.36782915      -1.37315141      -0.91508189        8 
O       0.78442734      -2.65993709       0.51426181        8 
C      -1.08482518      -2.54116243      -1.35120523        6 
C      -3.44083008       0.85196686      -0.13656047        6 
C       0.59876169       2.06809494      -0.06291814        6 
C       0.37703209       1.65254579      -1.50785106        6 
C       1.26032240       0.69192810      -1.78901809        6 
C       2.08535308       0.44204170      -0.53659021        6 
C       2.13122673       1.88514399       0.02659396        6 
C       1.99408926      -0.62369032       1.81198584        6 
H      -0.39716179      -3.29051812      -1.74567524        1 
H      -3.93531468       0.99740977       0.82490885        1 
H       1.31755415       0.10064480      -2.69248089        1 
H      -1.75815217      -2.19192135      -2.13167777        1 
H      -1.64627456      -2.96813576      -0.51880700        1 
H      -3.85753348       1.51906427      -0.88814814        1 
H      -3.55317148      -0.18922520      -0.44321873        1 
H       3.03360414      -0.07664408      -0.67619524        1 
H       0.18966377       3.03513117       0.22606130        1 
H       2.48244851       0.25845452       2.22725119        1 
H       1.34693020      -1.05156399       2.57976336        1 
H       2.75721424      -1.36603611       1.57430052        1 
H       2.66939540       2.56433363      -0.63557504        1 
H       2.53134458       1.96914124       1.03809600        1 
H      -0.43030758       2.00626863      -2.13214781        1 
H       0.30259230       1.19328433       1.91694991        1 
