32
Lattice="0.0 0.0 0.0 0.0 0.0 0.0 0.0 0.0 0.0" Properties=species:S:1:pos:R:3:Z:I:1 pbc="F F F"
C      -0.30601530       1.01377539       0.43421822        6 
C       0.86746819       0.03783997       0.88112000        6 
C      -1.56281407       0.42018391      -0.16109185        6 
C       0.63797902      -1.45122333       0.57278695        6 
O      -2.65158316       0.89586171       0.49516297        8 
O      -1.64696862      -0.34192215      -1.09222918        8 
O       0.75042736      -1.76488121      -0.72189517        8 
O       0.44108013      -2.28366572       1.43010965        8 
C       0.44552708      -3.12068038      -1.08591855        6 
C      -3.92694931       0.43249978       0.01501895        6 
C       0.41195640       2.03808397      -0.53176999        6 
C       0.87642042       1.30282707      -1.77430862        6 
C       1.88325096       0.50517878      -1.41040647        6 
C       2.09602450       0.67671235       0.08510168        6 
C       1.75831076       2.18417141       0.21113833        6 
C       1.08181995       0.14212120       2.40202609        6 
H       1.10630020      -3.81881283      -0.56984840        1 
H      -3.99111643      -0.65403351       0.09301268        1 
H       2.38854896      -0.22564565      -2.02353902        1 
H       0.59491013      -3.16815914      -2.16244607        1 
H      -0.59190526      -3.34941844      -0.83837203        1 
H      -4.66745556       0.90649441       0.65557051        1 
H      -4.07468805       0.72563633      -1.02565163        1 
H       3.05680543       0.34300225       0.47679458        1 
H      -0.17541563       2.94262135      -0.69029460        1 
H       1.23895995       1.17619342       2.70880146        1 
H       0.21566140      -0.24726148       2.93846984        1 
H       1.94829097      -0.44630504       2.71059260        1 
H       2.46391815       2.80813289      -0.33845567        1 
H       1.66613415       2.55137859       1.23407219        1 
H       0.38885977       1.34318076      -2.73815318        1 
H      -0.62382822       1.56115004       1.32077289        1 
