32
Lattice="0.0 0.0 0.0 0.0 0.0 0.0 0.0 0.0 0.0" Properties=species:S:1:pos:R:3:Z:I:1 pbc="F F F"
C       0.76619604      -0.65145167      -0.79124332        6 
C       0.42410181       0.87997244      -0.54548322        6 
C      -0.16683531      -1.75051210      -0.32652363        6 
C      -0.80616171       1.12544137       0.34234637        6 
O      -1.45416898      -1.35918366      -0.26713496        8 
O       0.18538228      -2.89059297      -0.13998838        8 
O      -1.86219002       1.57485937      -0.36884505        8 
O      -0.85362103       0.97842835       1.53943363        8 
C      -3.07567593       1.77476727       0.37179026        6 
C      -2.40932038      -2.36139563       0.12725124        6 
C       2.21832208      -0.81869300      -0.21780812        6 
C       2.11779664      -0.66942925       1.29068997        6 
C       1.83723604       0.61200771       1.54465777        6 
C       1.74943012       1.34137670       0.20820514        6 
C       2.82033877       0.55257226      -0.58498419        6 
C       0.26567681       1.61636849      -1.88983614        6 
H      -3.39318783       0.84014947       0.83731581        1 
H      -2.17972304      -2.72730594       1.12871512        1 
H       1.59961433       1.05389663       2.50011088        1 
H      -3.81005514       2.10906123      -0.35823970        1 
H      -2.93443404       2.52800944       1.14844255        1 
H      -3.37522304      -1.86127675       0.11444780        1 
H      -2.39887461      -3.19607993      -0.57505560        1 
H       1.84753437       2.42663062       0.24495850        1 
H       2.71717273      -1.71102559      -0.58909893        1 
H       1.15114614       1.48307594      -2.51186223        1 
H      -0.59701850       1.23806214      -2.43888586        1 
H       0.11806281       2.68726985      -1.73360260        1 
H       3.81938676       0.68769297      -0.16917631        1 
H       2.84373285       0.75985838      -1.65628957        1 
H       2.14909908      -1.49087744       1.99281305        1 
H       0.80109813      -0.79799067      -1.87828915        1 
