32
Lattice="0.0 0.0 0.0 0.0 0.0 0.0 0.0 0.0 0.0" Properties=species:S:1:pos:R:3:Z:I:1 pbc="F F F"
C       0.92028157      -0.63721845       0.79058398        6 
C      -0.64985336      -0.64510719       0.64632594        6 
C       1.77558429       0.58826781       0.53699309        6 
C      -1.31271599       0.70435045       0.39486661        6 
O       1.35415447       1.35172607      -0.48247409        8 
O       2.83561716       0.75944850       1.09662967        8 
O      -2.41828449       0.56268922      -0.37222982        8 
O      -0.96098692       1.76050206       0.85523017        8 
C      -3.17577847       1.76055464      -0.61835848        6 
C       2.16735956       2.49039701      -0.80481518        6 
C       1.34453063      -1.75569330      -0.27008573        6 
C       1.00474551      -1.22107647      -1.65356476        6 
C      -0.32702637      -1.20990640      -1.76369101        6 
C      -0.89864858      -1.74030113      -0.45903679        6 
C       0.19679867      -2.76846216      -0.08930179        6 
C      -1.29125042      -1.08221125       1.99485389        6 
H      -3.55900014       2.17019484       0.31769641        1 
H       3.16046002       2.17371504      -1.12894692        1 
H      -0.91718849      -0.79844986      -2.57070627        1 
H      -3.99524717       1.45699636      -1.26660610        1 
H      -2.55370857       2.50961393      -1.11005362        1 
H       1.64407886       2.99941605      -1.61165278        1 
H       2.26222360       3.14574012       0.06173404        1 
H      -1.92959787      -2.08727931      -0.48891439        1 
H       2.36413582      -2.10548720      -0.11760827        1 
H      -0.89723648      -2.04241533       2.32985280        1 
H      -1.08500616      -0.34323772       2.77218973        1 
H      -2.37482335      -1.17969895       1.88782396        1 
H       0.24906233      -3.58663817      -0.80916723        1 
H       0.12065842      -3.17817465       0.91928991        1 
H       1.72314397      -0.81824238      -2.35420291        1 
H       1.20097737      -0.98166781       1.78511736        1 
