32
Lattice="0.0 0.0 0.0 0.0 0.0 0.0 0.0 0.0 0.0" Properties=species:S:1:pos:R:3:Z:I:1 pbc="F F F"
C      -0.41307608      -1.03177184       0.57134289        6 
C      -0.75474939       0.49439622       0.79496702        6 
C       0.97284986      -1.42110892       0.11215480        6 
C       0.24279576       1.49730493       0.20891102        6 
O       1.91967572      -0.74351656       0.80023234        8 
O       1.22433939      -2.31952707      -0.65285428        8 
O       0.75663032       1.10040267      -0.97146907        8 
O       0.51652240       2.55969472       0.71495070        8 
C       1.69533024       1.99077194      -1.59505895        6 
C       3.28504030      -1.07663027       0.49728903        6 
C      -1.59365522      -1.57771698      -0.29932239        6 
C      -1.54350086      -0.89661754      -1.65494470        6 
C      -1.88411187       0.38260155      -1.47371884        6 
C      -2.15031798       0.58469680       0.01027849        6 
C      -2.75954775      -0.79781436       0.34978227        6 
C      -0.93321258       0.82924544       2.28234791        6 
H       1.23527356       2.96066025      -1.79012206        1 
H       3.49606508      -0.89483838      -0.55800577        1 
H      -1.85361507       1.17703909      -2.20717732        1 
H       1.97637288       1.50464344      -2.52699566        1 
H       2.56849024       2.13219319      -0.95548534        1 
H       3.88878991      -0.42585952       1.12609726        1 
H       3.48441589      -2.12486217       0.72522005        1 
H      -2.71823863       1.47263882       0.28588352        1 
H      -1.65168845      -2.66436492      -0.30710390        1 
H      -1.68518705       0.18446030       2.73911934        1 
H       0.00853993       0.69137584       2.81881284        1 
H      -1.23845564       1.86805330       2.41083668        1 
H      -3.70818542      -0.96373434      -0.16274425        1 
H      -2.88467343      -0.98929636       1.41753669        1 
H      -1.17835192      -1.36003356      -2.56072063        1 
H      -0.48395649      -1.51061696       1.55587974        1 
