32
Lattice="0.0 0.0 0.0 0.0 0.0 0.0 0.0 0.0 0.0" Properties=species:S:1:pos:R:3:Z:I:1 pbc="F F F"
C      -0.15485556      -0.95709920       0.84120097        6 
C      -1.12626811       0.27801900       0.59775435        6 
C       1.34239466      -0.71459420       0.85900309        6 
C      -0.52381681       1.58097710       0.07135283        6 
O       1.96256091      -1.04273108      -0.29020347        8 
O       1.94177372      -0.38487524       1.85707743        8 
O       0.66442439       1.42396890      -0.53492676        8 
O      -1.07187397       2.65422198       0.16729826        8 
C       1.26097504       2.60869939      -1.09176162        6 
C       3.38064476      -0.82416905      -0.32217424        6 
C      -0.67802969      -2.02219519      -0.19585503        6 
C      -0.47050402      -1.48442053      -1.60408177        6 
C      -1.33616535      -0.48315104      -1.78633193        6 
C      -2.11999824      -0.31967281      -0.49621878        6 
C      -2.19933148      -1.79588174      -0.04638428        6 
C      -1.88307496       0.62950385       1.89342046        6 
H       0.59120469       3.06498543      -1.82190596        1 
H       3.88329187      -1.42588731       0.43664471        1 
H      -1.39875339       0.18426996      -2.63587196        1 
H       2.17728579       2.27055837      -1.57069014        1 
H       1.47991692       3.33022304      -0.30360163        1 
H       3.69834306      -1.12106184      -1.31981272        1 
H       3.60458120       0.22961583      -0.14632869        1 
H      -3.04825739       0.24701748      -0.55551931        1 
H      -0.29876957      -3.02554986      -0.00520664        1 
H      -2.42162544      -0.23902397       2.27562471        1 
H      -1.18437392       0.95943461       2.66646277        1 
H      -2.59538883       1.43427486       1.71268752        1 
H      -2.78284176      -2.40259808      -0.74050152        1 
H      -2.57299777      -1.94311876       0.96885781        1 
H       0.31284036      -1.80501100      -2.27454851        1 
H      -0.36692278      -1.32193080       1.84679027        1 
