32
Lattice="0.0 0.0 0.0 0.0 0.0 0.0 0.0 0.0 0.0" Properties=species:S:1:pos:R:3:Z:I:1 pbc="F F F"
C      -0.78052001       0.53654912      -0.86283991        6 
C      -0.44311600      -0.96331552      -0.47250644        6 
C       0.13676316       1.70504526      -0.56081885        6 
C       0.86151725      -1.19312260       0.30319768        6 
O       1.23021535       1.39843652       0.15299487        8 
O      -0.12043097       2.82990282      -0.92418682        8 
O       1.91062781      -1.34494736      -0.53445250        8 
O       0.97285206      -1.26205422       1.50178351        8 
C       3.19231411      -1.50818900       0.09047135        6 
C       2.09448291       2.49458818       0.50278267        6 
C      -2.18884772       0.78399086      -0.17863669        6 
C      -1.94522618       0.80307314       1.32208614        6 
C      -1.64412984      -0.44645928       1.68969688        6 
C      -1.69038953      -1.31992992       0.43949418        6 
C      -2.82830445      -0.60789212      -0.33224597        6 
C      -0.42193191      -1.84877704      -1.73842933        6 
H       3.42809198      -0.63627577       0.70287150        1 
H       1.54641416       3.24141666       1.07819860        1 
H      -1.32008033      -0.78786655       2.66052882        1 
H       3.90435413      -1.60732312      -0.72628808        1 
H       3.20328899      -2.39938687       0.71985078        1 
H       2.88739029       2.05509953       1.10364103        1 
H       2.50113378       2.95909649      -0.39664791        1 
H      -1.79034945      -2.39196932       0.60869288        1 
H      -2.70834159       1.63951487      -0.60484238        1 
H      -1.36371984      -1.77854080      -2.28320386        1 
H       0.38321384      -1.55256075      -2.41082542        1 
H      -0.26599615      -2.89781364      -1.47199702        1 
H      -3.78482135      -0.68100810       0.18713318        1 
H      -2.95549328      -0.92921845      -1.36708735        1 
H      -1.91162414       1.69611477       1.93187553        1 
H      -0.91853814       0.58133972      -1.94713072        1 
