32
Lattice="0.0 0.0 0.0 0.0 0.0 0.0 0.0 0.0 0.0" Properties=species:S:1:pos:R:3:Z:I:1 pbc="F F F"
C      -0.81498201      -0.38231696      -0.59931781        6 
C       0.76304191      -0.25228894      -0.65779180        6 
C      -1.77010998       0.60969112       0.03958150        6 
C       1.45757862       0.87255670       0.11565553        6 
O      -2.90897936       0.62745323      -0.72032680        8 
O      -1.66208626       1.25247379       1.04637934        8 
O       2.74030418       1.00414582      -0.33049873        8 
O       1.03504899       1.52043676       1.03230937        8 
C       3.54271605       1.97111451       0.36685915        6 
C      -3.98719650       1.42602181      -0.20616619        6 
C      -1.02305211      -1.78959956       0.11549847        6 
C      -0.51102620      -1.64915663       1.53870890        6 
C       0.82137582      -1.56614163       1.47656074        6 
C       1.21615512      -1.63457755       0.00964418        6 
C       0.12819407      -2.59203886      -0.52001040        6 
C       1.19589859      -0.19040980      -2.14248564        6 
H       3.10279393       2.96638118       0.28442353        1 
H      -3.67999585       2.46805029      -0.10420312        1 
H       1.49905275      -1.34178654       2.28890157        1 
H       4.51703092       1.94213645      -0.11676764        1 
H       3.62923267       1.70917636       1.42287590        1 
H      -4.79119803       1.33282376      -0.93354857        1 
H      -4.30966290       1.05501595       0.76894865        1 
H       2.25628298      -1.87185323      -0.20788393        1 
H      -2.03489045      -2.17294363      -0.00997112        1 
H       0.69365681      -0.96364659      -2.72470827        1 
H       0.92954760       0.77641374      -2.57862966        1 
H       2.27168134      -0.32265987      -2.24617016        1 
H       0.22133870      -3.59199142      -0.09347397        1 
H       0.07314570      -2.66391984      -1.60762100        1 
H      -1.13515759      -1.50716170       2.40983318        1 
H      -1.16309099      -0.49133408      -1.62515561        1 
