32
Lattice="0.0 0.0 0.0 0.0 0.0 0.0 0.0 0.0 0.0" Properties=species:S:1:pos:R:3:Z:I:1 pbc="F F F"
C      -0.29878577       1.07026458       0.42904826        6 
C       0.82348853       0.05223674       0.91518348        6 
C      -1.50537258       0.45196500      -0.23808086        6 
C       0.47750133      -1.40162106       0.56066085        6 
O      -2.63886386       0.78800969       0.41863426        8 
O      -1.50072499      -0.24303070      -1.22621589        8 
O       0.97101285      -1.81956149      -0.61082129        8 
O      -0.14051462      -2.12842447       1.30601020        8 
C       0.56422961      -3.12978436      -1.04300054        6 
C      -3.85937104       0.23677247      -0.11129314        6 
C       0.49337525       2.08334944      -0.48197460        6 
C       0.99155783       1.35434181      -1.71649219        6 
C       1.95368872       0.51736368      -1.32200568        6 
C       2.10195421       0.65499316       0.18608648        6 
C       1.80927407       2.17156846       0.32316340        6 
C       0.97362487       0.10313630       2.44626052        6 
H       0.86719433      -3.88652536      -0.31812406        1 
H      -3.81878853      -0.85330470      -0.09638385        1 
H       2.46604066      -0.21664002      -1.92463948        1 
H       1.06403473      -3.28573606      -1.99672298        1 
H      -0.51847039      -3.15519274      -1.17143598        1 
H      -4.64899534       0.60010048       0.54262814        1 
H      -4.02003613       0.57707601      -1.13546610        1 
H       3.03393763       0.28391408       0.61216769        1 
H      -0.05521509       3.01001537      -0.65103773        1 
H       1.18787772       1.11508653       2.79029483        1 
H       0.05933840      -0.24223610       2.92903102        1 
H       1.78825943      -0.54879692       2.77253242        1 
H       2.55918695       2.78126840      -0.18189370        1 
H       1.68209151       2.52471413       1.34787286        1 
H       0.55246991       1.43101355      -2.70105536        1 
H      -0.66462604       1.60603149       1.30465540        1 
