32
Lattice="0.0 0.0 0.0 0.0 0.0 0.0 0.0 0.0 0.0" Properties=species:S:1:pos:R:3:Z:I:1 pbc="F F F"
C      -0.42327577      -0.95983648       0.57451774        6 
C      -0.67332148       0.60847492       0.68788076        6 
C       0.85613673      -1.52961375      -0.00073967        6 
C       0.15797329       1.55932789      -0.18632687        6 
O       1.92819316      -1.16996760       0.73140494        8 
O       0.90816269      -2.35980442      -0.87809949        8 
O       1.48356067       1.38296754      -0.05621959        8 
O      -0.31501507       2.43074787      -0.87737558        8 
C       2.31787392       2.26637700      -0.82729041        6 
C       3.19269037      -1.70091528       0.30598670        6 
C      -1.73175253      -1.50906316      -0.06460259        6 
C      -1.86660728      -0.91501274      -1.45586994        6 
C      -2.15533801       0.38183798      -1.31091660        6 
C      -2.18105814       0.68313951       0.18432936        6 
C      -2.75875687      -0.65022754       0.70758225        6 
C      -0.50790674       1.10002449       2.13841188        6 
H       2.12533002       2.13533953      -1.89337209        1 
H       3.40651338      -1.40097785      -0.72154505        1 
H      -2.23695545       1.12952224      -2.08549755        1 
H       3.33941922       1.98161638      -0.58436198        1 
H       2.13158508       3.30609564      -0.55497069        1 
H       3.92852366      -1.27870653       0.98716079        1 
H       3.19393676      -2.79066243       0.36604396        1 
H      -2.67731161       1.60571743       0.47915613        1 
H      -1.81806185      -2.59186940       0.00720363        1 
H      -1.18003847       0.55656349       2.80586256        1 
H       0.51737597       0.94574597       2.48052006        1 
H      -0.74461589       2.16500413       2.21280500        1 
H      -3.78206875      -0.81497095       0.36798856        1 
H      -2.71073993      -0.77274768       1.79295361        1 
H      -1.66518952      -1.45159730      -2.37247684        1 
H      -0.39063803      -1.31504451       1.61131293        1 
