32
Lattice="0.0 0.0 0.0 0.0 0.0 0.0 0.0 0.0 0.0" Properties=species:S:1:pos:R:3:Z:I:1 pbc="F F F"
C      -0.82451101       0.54310684       0.58652912        6 
C       0.71528692       0.31712953       0.74235069        6 
C      -1.73773921      -0.65480825       0.45481249        6 
C       1.28067677      -0.80974584      -0.12961147        6 
O      -2.88694001      -0.31527886      -0.17804210        8 
O      -1.52008997      -1.75766344       0.88519019        8 
O       2.63948107      -0.77924456      -0.08378737        8 
O       0.67670546      -1.63209788      -0.76485739        8 
C       3.31060254      -1.77652071      -0.87211054        6 
C      -3.86186014      -1.36593555      -0.31027857        6 
C      -0.95733253       1.79386023      -0.34303889        6 
C      -0.25294907       1.52201227      -1.66123922        6 
C       1.06249827       1.49600262      -1.42191462        6 
C       1.25458752       1.68085514       0.08005370        6 
C       0.10826963       2.67397583       0.35938843        6 
C       1.14315997       0.12891489       2.20215209        6 
H       3.01207985      -2.77829991      -0.55967583        1 
H      -4.18254128      -1.71748231       0.67197244        1 
H       1.84991340       1.24535299      -2.12030411        1 
H       4.37307463      -1.61962656      -0.69754682        1 
H       3.07350591      -1.64985684      -1.93036017        1 
H      -4.69652177      -0.92099270      -0.84817580        1 
H      -3.44406567      -2.20290609      -0.87137477        1 
H       2.25673951       1.94124337       0.41319708        1 
H      -1.97302934       2.17746740      -0.40502421        1 
H       0.83757652       0.99063502       2.80148669        1 
H       0.67117211      -0.76346082       2.62116905        1 
H       2.22558650       0.02086148       2.28045195        1 
H       0.26624056       3.63001066      -0.14202859        1 
H      -0.09447740       2.84435866       1.42003348        1 
H      -0.75516188       1.30436563      -2.59428765        1 
H      -1.14583308       0.91575816       1.57072684        1 
