32
Lattice="0.0 0.0 0.0 0.0 0.0 0.0 0.0 0.0 0.0" Properties=species:S:1:pos:R:3:Z:I:1 pbc="F F F"
C      -0.16763917       1.16992675       0.54006568        6 
C       0.69126222      -0.13698203       0.86971505        6 
C      -1.48371019       1.09168899      -0.21260900        6 
C       0.14299415      -1.47699377       0.35738966        6 
O      -2.33738146       0.22895325       0.35532919        8 
O      -1.78359252       1.81408872      -1.13579782        8 
O       0.92091948      -2.03900964      -0.59455533        8 
O      -0.83461466      -2.03089599       0.79453095        8 
C       0.48943049      -3.32150528      -1.08253390        6 
C      -3.63546353       0.10644185      -0.25008061        6 
C       0.85907643       2.11400699      -0.16548033        6 
C       1.18757806       1.48671600      -1.51083807        6 
C       1.92127610       0.39636663      -1.27039987        6 
C       2.08536301       0.27064861       0.24038502        6 
C       2.14659427       1.77166523       0.61340226        6 
C       0.79645660      -0.33608987       2.39927487        6 
H       0.45100179      -4.04760962      -0.26902345        1 
H      -3.54174715      -0.14758917      -1.30683809        1 
H       2.26137696      -0.33812335      -1.98486392        1 
H       1.23050089      -3.61349925      -1.82383912        1 
H      -0.49879132      -3.24300071      -1.53821713        1 
H      -4.12908809      -0.69552341       0.29392697        1 
H      -4.19258179       1.04031428      -0.15429224        1 
H       2.89951476      -0.36781188       0.58112477        1 
H       0.53524568       3.15257911      -0.18623371        1 
H       1.15714793       0.56577832       2.89445611        1 
H      -0.18063325      -0.59386603       2.81012962        1 
H       1.48793576      -1.15107431       2.63292726        1 
H       3.02589852       2.26271860       0.19459360        1 
H       2.09124912       1.97932401       1.68349230        1 
H       0.79439184       1.82767338      -2.45779639        1 
H      -0.44953027       1.60144921       1.50705676        1 
