32
Lattice="0.0 0.0 0.0 0.0 0.0 0.0 0.0 0.0 0.0" Properties=species:S:1:pos:R:3:Z:I:1 pbc="F F F"
C      -0.62866877       0.52438396      -0.98487021        6 
C      -0.64274249      -0.95435118      -0.38133251        6 
C       0.68123836       1.27420099      -0.86503841        6 
C       0.56678271      -1.24187080       0.51695114        6 
O       0.85870095       1.84714347       0.34043758        8 
O       1.50190783       1.33295751      -1.75100851        8 
O       1.63674127      -1.59567533      -0.22866721        8 
O       0.62187813      -1.12971511       1.71609645        8 
C       2.86789495      -1.80861617       0.48206913        6 
C       2.10959513       2.52653024       0.54424604        6 
C      -1.92659686       1.17390053      -0.38473929        6 
C      -1.79991141       1.27887055       1.12580444        6 
C      -1.84807138       0.03872758       1.61907405        6 
C      -1.99827480      -0.91855300       0.44423701        6 
C      -2.87486995      -0.04398155      -0.48665620        6 
C      -0.70242719      -2.00440401      -1.50753998        6 
H       3.13874140      -0.91789616       1.05107381        1 
H       2.21850357       3.34883592      -0.16443470        1 
H      -1.69472759      -0.26800747       2.64211540        1 
H       3.61092617      -2.01542262      -0.28476116        1 
H       2.77322595      -2.65379284       1.16590283        1 
H       2.07276985       2.89835354       1.56570052        1 
H       2.94334700       1.83407149       0.41732430        1 
H      -2.36279532      -1.91815818       0.68217392        1 
H      -2.22111773       2.08064954      -0.91308481        1 
H      -1.60257523      -1.87121597      -2.10946722        1 
H       0.16527914      -1.92284991      -2.16155093        1 
H      -0.72206493      -3.01517365      -1.09051265        1 
H      -3.85685992       0.15674940      -0.05689675        1 
H      -2.99554727      -0.43115979      -1.50110423        1 
H      -1.59592677       2.19253480       1.66470583        1 
H      -0.76550086       0.42122514      -2.06288931        1 
