32
Lattice="0.0 0.0 0.0 0.0 0.0 0.0 0.0 0.0 0.0" Properties=species:S:1:pos:R:3:Z:I:1 pbc="F F F"
C      -0.85070197      -0.41464889      -0.50342887        6 
C       0.70643168      -0.32499458      -0.66428443        6 
C      -1.74420927       0.79921711      -0.32988751        6 
C       1.44415829       0.74473958       0.15166915        6 
O      -3.03907479       0.37186410      -0.42264287        8 
O      -1.45973949       1.95113935      -0.15189269        8 
O       2.78387030       0.62918850      -0.08072343        8 
O       0.99357768       1.55561382       0.91131130        8 
C       3.62137982       1.53299458       0.65785102        6 
C      -4.04478374       1.38945464      -0.29077000        6 
C      -1.08364477      -1.65767261       0.43497419        6 
C      -0.36513787      -1.43238843       1.75493775        6 
C       0.94862400      -1.51035602       1.51831788        6 
C       1.12918218      -1.72345524       0.01931319        6 
C      -0.09227807      -2.62225639      -0.25934376        6 
C       1.11117908      -0.24553024      -2.14468233        6 
H       3.37877420       2.56833358       0.41319719        1 
H      -3.93185044       2.14617271      -1.06917446        1 
H       1.75186994      -1.31025389       2.21485114        1 
H       4.64049265       1.29714047       0.35783747        1 
H       3.49359998       1.38378446       1.73170058        1 
H      -4.99680600       0.87292970      -0.39687759        1 
H      -3.97785727       1.87181137       0.68597286        1 
H       2.10783272      -2.06773777      -0.30920456        1 
H      -2.12822414      -1.95575601       0.48637217        1 
H       0.67812354      -1.07907950      -2.70329082        1 
H       0.74705924       0.68395217      -2.59237829        1 
H       2.19424076      -0.27823825      -2.25671858        1 
H      -0.01174684      -3.58464227       0.24800793        1 
H      -0.30637816      -2.78352731      -1.31897926        1 
H      -0.84940855      -1.16560538       2.68466213        1 
H      -1.19987113      -0.77494991      -1.47855432        1 
