32
Lattice="0.0 0.0 0.0 0.0 0.0 0.0 0.0 0.0 0.0" Properties=species:S:1:pos:R:3:Z:I:1 pbc="F F F"
C      -0.84905243       0.41867835      -0.88661874        6 
C      -0.20598802      -0.98145798      -0.48125095        6 
C      -0.12588718       1.74643035      -0.78917968        6 
C       1.10871729      -0.95531736       0.31668594        6 
O       0.50030674       1.95634382       0.37395772        8 
O      -0.18733991       2.57723000      -1.66997660        8 
O       2.10596582      -1.59619630      -0.34443939        8 
O       1.28906423      -0.44420808       1.39168112        8 
C       3.37682473      -1.63339770       0.32581405        6 
C       1.15208096       3.22798343       0.53178807        6 
C      -2.22520780       0.43229335      -0.10070107        6 
C      -1.93522873       0.47291061       1.38746756        6 
C      -1.42715892      -0.71526948       1.72700996        6 
C      -1.36146915      -1.56438025       0.46555722        6 
C      -2.62536179      -1.04937727      -0.25985919        6 
C      -0.05830688      -1.85087141      -1.74586418        6 
H       3.74914739      -0.62200252       0.49623128        1 
H       0.42261688       4.03887988       0.49329210        1 
H      -1.01636323      -1.00034328       2.68395620        1 
H       4.03996325      -2.17927433      -0.34207435        1 
H       3.28922741      -2.14631491       1.28503367        1 
H       1.62983603       3.18327802       1.50773854        1 
H       1.89265421       3.37701730      -0.25547647        1 
H      -1.26731774      -2.64096474       0.61068598        1 
H      -2.91219145       1.18274747      -0.49083895        1 
H      -1.00473080      -1.91006506      -2.28333428        1 
H       0.68649130      -1.43260619      -2.42477073        1 
H       0.25470950      -2.86531666      -1.49382393        1 
H      -3.53680997      -1.29109044       0.28820098        1 
H      -2.72823053      -1.37600430      -1.29613813        1 
H      -2.01589340       1.35231412       2.01085614        1 
H      -1.09002078       0.35325699      -1.94807444        1 
