32
Lattice="0.0 0.0 0.0 0.0 0.0 0.0 0.0 0.0 0.0" Properties=species:S:1:pos:R:3:Z:I:1 pbc="F F F"
C       0.90877039      -0.67422818       0.77859904        6 
C      -0.66333976      -0.62837808       0.65184606        6 
C       1.78685125       0.53746305       0.53625293        6 
C      -1.27287808       0.74414841       0.38969636        6 
O       1.41791789       1.27414134      -0.52361979        8 
O       2.81570085       0.72420277       1.14606353        8 
O      -2.39202703       0.64006982      -0.36230992        8 
O      -0.87162593       1.79008327       0.83374996        8 
C      -3.10193048       1.86604832      -0.61385136        6 
C       2.23535286       2.41608557      -0.82284497        6 
C       1.28482931      -1.80115086      -0.28629925        6 
C       0.93836802      -1.26569384      -1.66785804        6 
C      -0.39393357      -1.21980793      -1.75872672        6 
C      -0.95982290      -1.72381702      -0.44127421        6 
C       0.11104592      -2.78055727      -0.08086598        6 
C      -1.30569470      -1.02706953       2.01101882        6 
H      -3.43731397       2.31326769       0.32333690        1 
H       3.26380513       2.11237467      -1.02484960        1 
H      -0.98554941      -0.79795858      -2.55927938        1 
H      -3.95300128       1.58663356      -1.23125301        1 
H      -2.46094656       2.57470146      -1.14023972        1 
H       1.78718323       2.86859454      -1.70508743        1 
H       2.22198719       3.11726997       0.01276777        1 
H      -2.00053803      -2.04156825      -0.45362074        1 
H       2.29577443      -2.18181594      -0.14943001        1 
H      -0.95333042      -2.00372505       2.34554886        1 
H      -1.05296007      -0.29499923       2.78122226        1 
H      -2.39414321      -1.07275191       1.92015646        1 
H       0.12929823      -3.60527851      -0.79490668        1 
H       0.03884079      -3.17923102       0.93259950        1 
H       1.65712069      -0.88815698      -2.38183759        1 
H       1.18514219      -1.03134376       1.76981944        1 
