32
Lattice="0.0 0.0 0.0 0.0 0.0 0.0 0.0 0.0 0.0" Properties=species:S:1:pos:R:3:Z:I:1 pbc="F F F"
C      -0.55097457      -0.97166008       0.71544266        6 
C      -0.69837410       0.61259591       0.79345945        6 
C       0.70338897      -1.63269418       0.16922676        6 
C       0.54887536       1.41423060       0.38702304        6 
O       1.81891874      -0.91488627       0.37573570        8 
O       0.70770772      -2.73074901      -0.33592937        8 
O       0.65224482       1.60064471      -0.94408327        8 
O       1.36940587       1.83524856       1.16466321        8 
C       1.84503248       2.26162410      -1.39634168        6 
C       3.05452828      -1.50314304      -0.06882282        6 
C      -1.81189957      -1.41458853      -0.11733048        6 
C      -1.56674155      -0.95074009      -1.54582661        6 
C      -1.65741436       0.38202954      -1.54920923        6 
C      -1.97207066       0.83119573      -0.12774280        6 
C      -2.85202025      -0.36396282       0.32120900        6 
C      -0.99601936       1.03581206       2.24827017        6 
H       1.92778947       3.25558458      -0.95473393        1 
H       3.03130886      -1.66300283      -1.14795618        1 
H      -1.45874406       1.05149537      -2.37258941        1 
H       1.74678313       2.32821784      -2.47810685        1 
H       2.72488751       1.67512595      -1.12646047        1 
H       3.82557677      -0.78471936       0.20035572        1 
H       3.22436060      -2.45717025       0.43194063        1 
H      -2.39182206       1.83202382      -0.02601332        1 
H      -2.05994191      -2.46533685       0.01329286        1 
H      -1.82786277       0.47264789       2.66899828        1 
H      -0.11747784       0.87435800       2.87311525        1 
H      -1.24304501       2.09953870       2.29727909        1 
H      -3.77158085      -0.43419812      -0.26125060        1 
H      -3.09628166      -0.38495431       1.38333972        1 
H      -1.26908916      -1.59738971      -2.35945868        1 
H      -0.63478919      -1.35531159       1.73825294        1 
