32
Lattice="0.0 0.0 0.0 0.0 0.0 0.0 0.0 0.0 0.0" Properties=species:S:1:pos:R:3:Z:I:1 pbc="F F F"
C      -0.83527920      -0.46368621      -0.54663358        6 
C       0.71514701      -0.33126288      -0.69704521        6 
C      -1.68393291       0.77124644      -0.34438737        6 
C       1.35934657       0.73838695       0.19013115        6 
O      -2.95451840       0.40476960      -0.03544283        8 
O      -1.34236761       1.91785405      -0.46991340        8 
O       2.67668605       0.86734765      -0.11707103        8 
O       0.83941265       1.35941062       1.07823052        8 
C       3.41457353       1.79801768       0.69281903        6 
C      -3.89903390       1.47893341       0.11665835        6 
C      -1.05527984      -1.75663568       0.31317528        6 
C      -0.36540996      -1.59665303       1.65792587        6 
C       0.95362959      -1.62549829       1.44245399        6 
C       1.16769577      -1.74480318      -0.06181419        6 
C      -0.02607255      -2.65746526      -0.41545321        6 
C       1.14326844      -0.18634701      -2.16326095        6 
H       2.98038014       2.79613003       0.61991400        1 
H      -3.99630809       2.03956265      -0.81487888        1 
H       1.73762891      -1.44410603       2.16548426        1 
H       4.42772756       1.78935233       0.29605387        1 
H       3.40890400       1.48322737       1.73808304        1 
H      -4.84234940       1.00127163       0.37367758        1 
H      -3.58282668       2.15721438       0.91052439        1 
H       2.16064296      -2.04675212      -0.39088054        1 
H      -2.09237746      -2.08326903       0.33134692        1 
H       0.75112132      -1.01602455      -2.75674778        1 
H       0.75429166       0.74482150      -2.58451914        1 
H       2.22852050      -0.17629342      -2.25702716        1 
H       0.06853661      -3.64525777       0.03752105        1 
H      -0.21382606      -2.76377788      -1.48700827        1 
H      -0.87320074      -1.39688266       2.59169983        1 
H      -1.18227254      -0.76434751      -1.54632153        1 
