32
Lattice="0.0 0.0 0.0 0.0 0.0 0.0 0.0 0.0 0.0" Properties=species:S:1:pos:R:3:Z:I:1 pbc="F F F"
C       0.76985760      -0.55223292       0.73482165        6 
C      -0.80520040      -0.50192185       0.76955966        6 
C       1.51090867       0.61408406       0.11255178        6 
C      -1.40022805       0.87505717       0.45795389        6 
O       2.84197842       0.46199227       0.31803728        8 
O       1.04527094       1.54217468      -0.49791306        8 
O      -2.17518121       0.87202107      -0.64352339        8 
O      -1.25210463       1.84247247       1.16255764        8 
C      -2.73785624       2.14372336      -1.01459104        6 
C       3.68507102       1.47485775      -0.26070835        6 
C       1.04619204      -1.83738920      -0.17100614        6 
C       0.64991802      -1.43845057      -1.58582595        6 
C      -0.68115979      -1.32465095      -1.60609808        6 
C      -1.19762553      -1.66774157      -0.21659417        6 
C      -0.15155108      -2.73622145       0.19061615        6 
C      -1.30975635      -0.80302250       2.20412214        6 
H      -3.38180493       2.52389920      -0.22016400        1 
H       3.42097293       2.45955351       0.12736699        1 
H      -1.29714344      -0.95637250      -2.41296876        1 
H      -3.31408243       1.95307398      -1.91778506        1 
H      -1.93907231       2.86040413      -1.20843140        1 
H       4.69940151       1.20731523       0.02722961        1 
H       3.58377055       1.48017576      -1.34751916        1 
H      -2.24953350      -1.94169201      -0.15233396        1 
H       2.04865777      -2.23829346      -0.03706459        1 
H      -0.90091667      -1.73493301       2.59403300        1 
H      -1.02430897       0.00776539       2.87526036        1 
H      -2.40074571      -0.88266315       2.21479317        1 
H      -0.20050368      -3.62226813      -0.44404096        1 
H      -0.18612320      -3.03959875       1.23735772        1 
H       1.34284425      -1.17271943      -2.37325535        1 
H       1.17328786      -0.71264766       1.73536191        1 
