32
Lattice="0.0 0.0 0.0 0.0 0.0 0.0 0.0 0.0 0.0" Properties=species:S:1:pos:R:3:Z:I:1 pbc="F F F"
C       0.79617105      -0.66655193      -0.75320239        6 
C       0.39559116       0.85532851      -0.56322267        6 
C      -0.12830966      -1.77354759      -0.29514960        6 
C      -0.82622858       1.07179130       0.34338609        6 
O      -1.42658483      -1.41105240      -0.33854781        8 
O       0.23598080      -2.89986832      -0.05760786        8 
O      -1.85688155       1.64076203      -0.31890028        8 
O      -0.88928223       0.80467601       1.51883761        8 
C      -3.05932702       1.83152284       0.44304777        6 
C      -2.38475956      -2.41536027       0.04136889        6 
C       2.24573571      -0.76875755      -0.16597644        6 
C       2.14606991      -0.55202807       1.33355887        6 
C       1.82896669       0.73096865       1.52974855        6 
C       1.71299303       1.39443881       0.16168991        6 
C       2.80513415       0.60299007      -0.59935352        6 
C       0.19237977       1.53475167      -1.92911116        6 
H      -3.41830311       0.87578292       0.82869546        1 
H      -2.24201938      -2.69310655       1.08659023        1 
H       1.57677257       1.20735162       2.46514954        1 
H      -3.77839961       2.26054651      -0.25179598        1 
H      -2.88246774       2.50844860       1.28036436        1 
H      -3.35959247      -1.95402968      -0.10102902        1 
H      -2.28199105      -3.30107338      -0.58692796        1 
H       1.77621767       2.48279999       0.14533530        1 
H       2.77240884      -1.66060041      -0.49847456        1 
H       1.07457343       1.40681011      -2.55714296        1 
H      -0.66326697       1.10363061      -2.45111317        1 
H       0.00723270       2.60429467      -1.81370107        1 
H       3.80055798       0.78793507      -0.19457152        1 
H       2.81806761       0.76073860      -1.67942268        1 
H       2.19932244      -1.33867952       2.07326030        1 
H       0.85510524      -0.84010440      -1.83570213        1 
