32
Lattice="0.0 0.0 0.0 0.0 0.0 0.0 0.0 0.0 0.0" Properties=species:S:1:pos:R:3:Z:I:1 pbc="F F F"
C       0.64813242      -0.68343722       0.45400979        6 
C      -0.85625091      -0.36004191       0.78870679        6 
C       1.71889571       0.38278442       0.31078516        6 
C      -1.50113901       0.96553556       0.36181905        6 
O       2.92975784      -0.24486360       0.31271461        8 
O       1.61693462       1.57582529       0.20191288        8 
O      -0.89568554       1.57524939      -0.65806615        8 
O      -2.55857021       1.34224650       0.82049761        8 
C      -1.52594167       2.76185652      -1.16408644        6 
C       4.07810784       0.60633791       0.16062095        6 
C       0.57964169      -1.78904132      -0.66951271        6 
C      -0.12321993      -1.22327784      -1.88743005        6 
C      -1.41144996      -1.06404800      -1.56981571        6 
C      -1.58232656      -1.48273905      -0.11704464        6 
C      -0.56186486      -2.63993572      -0.06600483        6 
C      -1.14570913      -0.57428797       2.28130306        6 
H      -2.50833224       2.52616713      -1.57879499        1 
H       4.12903395       1.33283686       0.97338167        1 
H      -2.18006547      -0.59564534      -2.17003363        1 
H      -0.85838355       3.13188540      -1.93886936        1 
H      -1.63993088       3.50111701      -0.37058690        1 
H       4.93842335      -0.05915095       0.18870185        1 
H       4.03741944       1.13932069      -0.79103396        1 
H      -2.60017460      -1.67702020       0.21696585        1 
H       1.53901994      -2.27393481      -0.83649800        1 
H      -0.86384461      -1.58236421       2.59179968        1 
H      -0.57708854       0.13642165       2.88819797        1 
H      -2.20377679      -0.42338713       2.49317114        1 
H      -0.85536585      -3.46826201      -0.71259942        1 
H      -0.34923704      -3.01529066       0.93717091        1 
H       0.36902711      -0.91548482      -2.80026308        1 
H       1.01422527      -1.23138555       1.32878352        1 
