32
Lattice="0.0 0.0 0.0 0.0 0.0 0.0 0.0 0.0 0.0" Properties=species:S:1:pos:R:3:Z:I:1 pbc="F F F"
C      -0.77858819       0.53396848      -0.88099611        6 
C      -0.39273198      -0.95161978      -0.46387431        6 
C       0.17174557       1.70696195      -0.76222510        6 
C       0.90248065      -1.13275775       0.34775268        6 
O       0.89709186       1.72028777       0.36331739        8 
O       0.22131360       2.58466662      -1.59579873        8 
O       1.87342215      -1.71456195      -0.39952519        8 
O       1.09633688      -0.78899885       1.48490318        8 
C       3.13935294      -1.90428794       0.25385725        6 
C       1.77248834       2.84518704       0.55266859        6 
C      -2.15161499       0.79187516      -0.13250672        6 
C      -1.89323833       0.79881402       1.36132898        6 
C      -1.59555032      -0.45423877       1.71827967        6 
C      -1.64442108      -1.31637279       0.46274306        6 
C      -2.79063692      -0.60247053      -0.29327623        6 
C      -0.37151429      -1.84978919      -1.71628647        6 
H       3.54966727      -0.94624060       0.57690128        1 
H       1.19827705       3.77180951       0.60109452        1 
H      -1.26087838      -0.79582573       2.68581735        1 
H       3.78300477      -2.36670024      -0.49157767        1 
H       3.02832537      -2.55520314       1.12264191        1 
H       2.27874395       2.65553640       1.49642557        1 
H       2.49076304       2.91353972      -0.26602982        1 
H      -1.74061117      -2.39112225       0.61953257        1 
H      -2.68702711       1.64496045      -0.54756576        1 
H      -1.32028426      -1.78870142      -2.25019789        1 
H       0.42158719      -1.55222749      -2.40320131        1 
H      -0.20199652      -2.89421263      -1.44610012        1 
H      -3.74141403      -0.68476053       0.23496561        1 
H      -2.92488442      -0.91340928      -1.33041691        1 
H      -1.84380274       1.68466761       1.97931476        1 
H      -1.00039088       0.51093543      -1.94950779        1 
