32
Lattice="0.0 0.0 0.0 0.0 0.0 0.0 0.0 0.0 0.0" Properties=species:S:1:pos:R:3:Z:I:1 pbc="F F F"
C       0.52358421      -0.83294341       0.46550504        6 
C      -0.88198118      -0.19290911       0.83865001        6 
C       1.71701196      -0.04805055      -0.04852446        6 
C      -1.18839251       1.28046654       0.53533955        6 
O       2.82539967      -0.46482855       0.62843499        8 
O       1.77483522       0.77177017      -0.92698367        8 
O      -0.71428760       1.70244408      -0.63704198        8 
O      -1.88203176       1.96907633       1.25221112        8 
C      -1.01893894       3.05378913      -1.01480419        6 
C       4.07104288       0.11326074       0.20281456        6 
C       0.13767730      -1.97135102      -0.57398576        6 
C      -0.41199203      -1.30226196      -1.81850777        6 
C      -1.60932493      -0.79848416      -1.50448478        6 
C      -1.86772730      -1.10523491      -0.03980402        6 
C      -1.16937459      -2.47962191       0.06583647        6 
C      -1.15023087      -0.39945823       2.34172484        6 
H      -2.09521570       3.18088997      -1.14720686        1 
H       4.05491372       1.19669150       0.33282214        1 
H      -2.23369326      -0.16892618      -2.12305825        1 
H      -0.49207926       3.21084174      -1.95327236        1 
H      -0.66701796       3.75199186      -0.25430992        1 
H       4.83212116      -0.33658192       0.83690243        1 
H       4.26179716      -0.11578874      -0.84723155        1 
H      -2.90008127      -1.03121647       0.30078801        1 
H       0.94101108      -2.69313661      -0.71834352        1 
H      -1.02015465      -1.44385252       2.62618966        1 
H      -0.46011002       0.20107945       2.93981842        1 
H      -2.16225062      -0.08898881       2.59970540        1 
H      -1.66278300      -3.23428067      -0.54845275        1 
H      -1.05192981      -2.85723730       1.08272628        1 
H       0.13498884      -1.16129661      -2.74012350        1 
H       0.88371122      -1.33259551       1.36365760        1 
