32
Lattice="0.0 0.0 0.0 0.0 0.0 0.0 0.0 0.0 0.0" Properties=species:S:1:pos:R:3:Z:I:1 pbc="F F F"
C      -0.70714356       0.92593220       0.61656577        6 
C       0.68193488       0.18959300       0.74780299        6 
C      -1.85836988       0.18353412      -0.02530337        6 
C       0.81068402      -1.03937110      -0.14614602        6 
O      -2.17300206      -0.91313707       0.70065643        8 
O      -2.48795458       0.55700013      -0.98291492        8 
O       1.96511763      -1.69973169       0.10314899        8 
O       0.04690121      -1.37973483      -1.01553785        8 
C       2.23030086      -2.83918579      -0.73493455        6 
C      -3.19818194      -1.75659785       0.14758212        6 
C      -0.34867815       2.28037529      -0.07338452        6 
C       0.19170037       1.97266557      -1.46069452        6 
C       1.39948099       1.42085899      -1.31152600        6 
C       1.66982009       1.31348398       0.18177696        6 
C       0.96839718       2.59863517       0.67172345        6 
C       0.99747818      -0.17673448       2.20763057        6 
H       1.44153299      -3.58515160      -0.62651514        1 
H      -2.87304427      -2.14905251      -0.81738200        1 
H       2.02027842       0.98628615      -2.08404452        1 
H       3.18305501      -3.23626093      -0.39142257        1 
H       2.29403455      -2.53714860      -1.78158170        1 
H      -3.33027018      -2.56435890       0.86462899        1 
H      -4.12831773      -1.20071786       0.02033568        1 
H       2.70261290       1.14420990       0.48227366        1 
H      -1.15172700       3.01357229      -0.02370898        1 
H       0.94941326       0.71114062       2.84077918        1 
H       0.26949240      -0.89927364       2.58640912        1 
H       1.99305894      -0.61151799       2.29689348        1 
H       1.45600299       3.49940051       0.29629778        1 
H       0.85781148       2.66730036       1.75679781        1 
H      -0.37471438       2.08200792      -2.37413010        1 
H      -1.04883000       1.13825930       1.63458991        1 
