32
Lattice="0.0 0.0 0.0 0.0 0.0 0.0 0.0 0.0 0.0" Properties=species:S:1:pos:R:3:Z:I:1 pbc="F F F"
C      -0.88662386      -0.74774729      -0.43701216        6 
C       0.57534216      -0.26410237      -0.71594173        6 
C      -2.04113134       0.16824688      -0.08289711        6 
C       1.08901437       0.84973538       0.20115190        6 
O      -1.76202825       1.47272852      -0.22987702        8 
O      -3.16837275      -0.24847388       0.06540605        8 
O       2.34845785       1.20312300      -0.16829774        8 
O       0.53316424       1.34168693       1.14740892        8 
C       2.98438532       2.19913226       0.64933244        6 
C      -2.86940406       2.37858635      -0.08450225        6 
C      -0.73214622      -2.10744602       0.32701372        6 
C       0.05231767      -1.88246095       1.60774527        6 
C       1.31602269      -1.60967969       1.26700938        6 
C       1.38299738      -1.58682885      -0.25637943        6 
C       0.37587516      -2.71349201      -0.57096943        6 
C       0.79775941       0.07571162      -2.19544868        6 
H       2.41279478       3.12848672       0.63428360        1 
H      -3.29599758       2.29830822       0.91620185        1 
H       2.11964433      -1.30506814       1.92424762        1 
H       3.96951995       2.34877462       0.21233495        1 
H       3.07004998       1.85133870       1.68035569        1 
H      -2.45119741       3.37040450      -0.24123350        1 
H      -3.64276725       2.16120077      -0.82329478        1 
H       2.37469746      -1.64270529      -0.70173676        1 
H      -1.67212485      -2.64824628       0.41312965        1 
H       0.54188565      -0.78140035      -2.82325276        1 
H       0.16416125       0.91498803      -2.49604096        1 
H       1.83615839       0.34479502      -2.38570463        1 
H       0.72758223      -3.68310547      -0.21547346        1 
H       0.09424032      -2.79171587      -1.62431128        1 
H      -0.37923702      -1.85695979       2.59917792        1 
H      -1.24649735      -1.06066065      -1.42688798        1 
