32
Lattice="0.0 0.0 0.0 0.0 0.0 0.0 0.0 0.0 0.0" Properties=species:S:1:pos:R:3:Z:I:1 pbc="F F F"
C       0.65070177      -0.71293996       0.52246419        6 
C      -0.88243361      -0.42345867       0.77363284        6 
C       1.61262709       0.41977447       0.23384688        6 
C      -1.40908285       0.98479773       0.43863473        6 
O       2.88013346      -0.02759397       0.43037932        8 
O       1.37267610       1.54099940      -0.13584160        8 
O      -1.26515815       1.33046665      -0.84606330        8 
O      -2.00377493       1.67372293       1.23656158        8 
C      -1.66809873       2.66243235      -1.19819128        6 
C       3.93107992       0.91463101       0.15178940        6 
C       0.66262107      -1.88651278      -0.53596590        6 
C       0.08097011      -1.37345462      -1.83819515        6 
C      -1.22487343      -1.17387363      -1.63812116        6 
C      -1.53402309      -1.52922012      -0.19034516        6 
C      -0.53810831      -2.69960202      -0.00649283        6 
C      -1.24556545      -0.69965006       2.24179191        6 
H      -2.72101903       2.82451828      -0.96282008        1 
H       3.83606578       1.79412204       0.79060960        1 
H      -1.93062458      -0.73165840      -2.32558330        1 
H      -1.49498161       2.74096265      -2.26962428        1 
H      -1.05596799       3.38788323      -0.66071024        1 
H       4.85793924       0.38615549       0.36426015        1 
H       3.89826659       1.22702534      -0.89338520        1 
H      -2.58126541      -1.71584890       0.04690348        1 
H       1.62809625      -2.38624725      -0.59017076        1 
H      -0.91478769      -1.69258406       2.54857843        1 
H      -0.77716360       0.03592024       2.89853161        1 
H      -2.32368122      -0.63074204       2.39332051        1 
H      -0.78102137      -3.54570409      -0.65102742        1 
H      -0.42388228      -3.04743591       1.02138372        1 
H       0.65519041      -1.11841830      -2.71880197        1 
H       1.04038278      -1.15069673       1.44595263        1 
