32
Lattice="0.0 0.0 0.0 0.0 0.0 0.0 0.0 0.0 0.0" Properties=species:S:1:pos:R:3:Z:I:1 pbc="F F F"
C      -0.60926862       1.02165696       0.51193745        6 
C       0.65829219       0.11656474       0.80477029        6 
C      -1.76163674       0.37988255      -0.23184365        6 
C       0.64624996      -1.22931967       0.08663147        6 
O      -2.62141357      -0.19000366       0.63800239        8 
O      -1.93607563       0.40591250      -1.42543696        8 
O       1.89856647      -1.64996884      -0.19346654        8 
O      -0.33117014      -1.90294194      -0.13052154        8 
C       2.00182685      -2.94169835      -0.82108434        6 
C      -3.68188439      -0.96515807       0.05321731        6 
C       0.00534042       2.26332166      -0.21464699        6 
C       0.62194509       1.79145397      -1.52383537        6 
C       1.71973608       1.09101078      -1.22212057        6 
C       1.83201959       1.05033581       0.29542372        6 
C       1.27898239       2.44925035       0.64069135        6 
C       0.77462127      -0.21491048       2.30717869        6 
H       1.59960762      -3.71752893      -0.16763654        1 
H      -3.26004176      -1.78192444      -0.53431757        1 
H       2.34985810       0.53119768      -1.89905493        1 
H       3.06495628      -3.09654091      -0.99181942        1 
H       1.45420353      -2.94831965      -1.76457750        1 
H      -4.25546304      -1.35325490       0.89241673        1 
H      -4.30972821      -0.34107058      -0.58490908        1 
H       2.80196327       0.77387659       0.70400821        1 
H      -0.68544978       3.10285464      -0.28460753        1 
H       0.82127113       0.70186209       2.89828415        1 
H      -0.09070838      -0.79294536       2.63992401        1 
H       1.67943572      -0.79516621       2.50504077        1 
H       1.92105731       3.24982391       0.27056294        1 
H       1.07707596       2.60397127       1.70376120        1 
H       0.16859399       1.92108020      -2.49533277        1 
H      -1.01065866       1.33980709       1.47618740        1 
