32
Lattice="0.0 0.0 0.0 0.0 0.0 0.0 0.0 0.0 0.0" Properties=species:S:1:pos:R:3:Z:I:1 pbc="F F F"
C      -0.64656182       0.62962778      -0.92559519        6 
C      -0.68710316      -0.88533052      -0.46476422        6 
C       0.60629477       1.45055588      -0.72077910        6 
C       0.54195708      -1.36083801       0.30725494        6 
O       1.12942556       1.32370351       0.51496745        8 
O       1.06039720       2.19706734      -1.55635390        8 
O       1.64518628      -1.31536698      -0.47278676        8 
O       0.55129073      -1.78518721       1.43547697        8 
C       2.87492194      -1.71687753       0.15230992        6 
C       2.31947523       2.08287989       0.78330560        6 
C      -1.90741455       1.24795364      -0.18883718        6 
C      -1.66343637       1.19481723       1.31096465        6 
C      -1.71774353      -0.08711783       1.68268392        6 
C      -1.98708948      -0.91463317       0.43468740        6 
C      -2.89352747       0.06948442      -0.34289781        6 
C      -0.83156319      -1.82121367      -1.68636020        6 
H       3.09658081      -1.06643830       1.00032170        1 
H       2.12696411       3.15135749       0.67514334        1 
H      -1.49247940      -0.50228645       2.65331360        1 
H       3.63825022      -1.61933242      -0.61663020        1 
H       2.80884216      -2.74849212       0.50102748        1 
H       2.58878802       1.84326554       1.80973886        1 
H       3.11650088       1.79321177       0.09613477        1 
H      -2.36077600      -1.92449558       0.59970082        1 
H      -2.20101647       2.21068878      -0.60559295        1 
H      -1.74085377      -1.59628365      -2.24585148        1 
H       0.02058917      -1.71320128      -2.35799487        1 
H      -0.88545520      -2.86527298      -1.36481117        1 
H      -3.83975419       0.25024324       0.16853818        1 
H      -3.08955572      -0.20996846      -1.38044291        1 
H      -1.38463492       2.04262203       1.92120436        1 
H      -0.82739828       0.67388366      -2.00033285        1 
