32
Lattice="0.0 0.0 0.0 0.0 0.0 0.0 0.0 0.0 0.0" Properties=species:S:1:pos:R:3:Z:I:1 pbc="F F F"
C      -0.62659018       0.55769849      -0.97040046        6 
C      -0.67088518      -0.93178318      -0.40333948        6 
C       0.69666670       1.28246427      -0.84955799        6 
C       0.53015423      -1.27235885       0.48612907        6 
O       0.94216673       1.72840868       0.39786886        8 
O       1.47175215       1.42354675      -1.76624309        8 
O       1.61807068      -1.53502375      -0.27232457        8 
O       0.56394110      -1.27366599       1.69085376        8 
C       2.84278386      -1.79057443       0.43561992        6 
C       2.20432048       2.38571938       0.60346212        6 
C      -1.90266752       1.22389862      -0.34078031        6 
C      -1.76234420       1.28035325       1.17117059        6 
C      -1.84214469       0.02814365       1.62889151        6 
C      -2.02338645      -0.88966171       0.42692072        6 
C      -2.88213811       0.03374664      -0.47217695        6 
C      -0.74944359      -1.95480669      -1.55310731        6 
H       3.08979592      -0.94945541       1.08528409        1 
H       2.26060716       3.29953125       0.00955971        1 
H      -1.69191549      -0.31292863       2.64145997        1 
H       3.60003108      -1.91742068      -0.33479529        1 
H       2.75343136      -2.69443545       1.04053674        1 
H       2.24021522       2.61467613       1.66615535        1 
H       3.02819264       1.72804972       0.32217055        1 
H      -2.41120444      -1.88657461       0.63722198        1 
H      -2.17663203       2.15328774      -0.84003210        1 
H      -1.64561312      -1.79082382      -2.15407064        1 
H       0.12115835      -1.87520673      -2.20383104        1 
H      -0.79038906      -2.97422602      -1.15889917        1 
H      -3.85685700       0.24601589      -0.03156703        1 
H      -3.01659223      -0.32009083      -1.49706220        1 
H      -1.53077059       2.17224485       1.73518622        1 
H      -0.77975504       0.48778357      -2.04891299        1 
