32
Lattice="0.0 0.0 0.0 0.0 0.0 0.0 0.0 0.0 0.0" Properties=species:S:1:pos:R:3:Z:I:1 pbc="F F F"
C      -0.29053569      -0.87670851       0.86638659        6 
C      -1.02527490       0.50088541       0.57796106        6 
C       1.21959922      -1.01951712       0.79044217        6 
C      -0.25182478       1.67093547      -0.02806140        6 
O       1.69291734      -1.20023928      -0.45714096        8 
O       1.91686369      -1.12758758       1.77364744        8 
O       1.06092402       1.45472242      -0.18812198        8 
O      -0.77604676       2.73317093      -0.27364146        8 
C       1.82659501       2.54060899      -0.74118013        6 
C       3.11246405      -1.37543793      -0.57196647        6 
C      -1.06607181      -1.86975003      -0.09007771        6 
C      -0.83087312      -1.43976867      -1.53178912        6 
C      -1.49883039      -0.29943931      -1.72909767        6 
C      -2.17771677       0.05985691      -0.41907419        6 
C      -2.50734032      -1.35254396       0.11176321        6 
C      -1.61851825       1.05548320       1.89588575        6 
H       1.45771292       2.79449142      -1.73591664        1 
H       3.43662610      -2.27117721      -0.03968976        1 
H      -1.48000915       0.33238558      -2.60715897        1 
H       2.84923513       2.17391560      -0.79365485        1 
H       1.76404444       3.41921580      -0.09808180        1 
H       3.30802966      -1.47154686      -1.63823136        1 
H       3.63707503      -0.51032597      -0.16240266        1 
H      -2.98147045       0.79179616      -0.47084826        1 
H      -0.87347813      -2.91790828       0.13677860        1 
H      -2.25323275       0.30979574       2.37602933        1 
H      -0.82108221       1.31695833       2.59688358        1 
H      -2.21230084       1.94832474       1.69722344        1 
H      -3.22834094      -1.87040261      -0.52286957        1 
H      -2.84921630      -1.38124254       1.14852198        1 
H      -0.15858608      -1.93357477      -2.21739044        1 
H      -0.51626379      -1.15068822       1.89674978        1 
