32
Lattice="0.0 0.0 0.0 0.0 0.0 0.0 0.0 0.0 0.0" Properties=species:S:1:pos:R:3:Z:I:1 pbc="F F F"
C       1.01728273       0.52032770      -0.77742209        6 
C      -0.53406916       0.78028551      -0.66046953        6 
C       1.64905956      -0.82419064      -0.48031934        6 
C      -1.39580768      -0.46128771      -0.46347991        6 
O       0.94953007      -1.58710741       0.37391277        8 
O       2.75671636      -1.11476743      -0.87246390        8 
O      -2.30914158      -0.30286465       0.51817705        8 
O      -1.33339289      -1.45059415      -1.15098952        8 
C      -3.20858393      -1.40784116       0.72104370        6 
C       1.52666082      -2.85807406       0.71683562        6 
C       1.60519184       1.56242419       0.27868885        6 
C       1.19534285       1.06672914       1.65930581        6 
C      -0.12464712       1.24246161       1.76988249        6 
C      -0.61637134       1.86992895       0.47385105        6 
C       0.61806101       2.73367060       0.11566095        6 
C      -1.06707916       1.35164259      -2.00626855        6 
H      -3.78308085      -1.60532234      -0.18527679        1 
H       2.49756124      -2.72322001       1.19611455        1 
H      -0.76903392       0.90694987       2.56979192        1 
H      -3.86569230      -1.10241558       1.53266140        1 
H      -2.65102743      -2.30496142       0.99376082        1 
H       0.81972223      -3.32120173       1.40184066        1 
H       1.64746291      -3.47059917      -0.17768130        1 
H      -1.58480301       2.36503840       0.51531214        1 
H       2.66485576       1.75424858       0.12119472        1 
H      -0.51439375       2.24089147      -2.30846597        1 
H      -0.97297538       0.60251489      -2.79422759        1 
H      -2.12261387       1.62304157      -1.91311494        1 
H       0.79323655       3.52396400       0.84638297        1 
H       0.60015186       3.16395703      -0.88640713        1 
H       1.84900895       0.55110247       2.34999279        1 
H       1.36808021       0.79107955      -1.77345226        1 
