32
Lattice="0.0 0.0 0.0 0.0 0.0 0.0 0.0 0.0 0.0" Properties=species:S:1:pos:R:3:Z:I:1 pbc="F F F"
C      -0.46371837      -1.04873869       0.60594228        6 
C      -0.69101251       0.51583691       0.83661457        6 
C       0.82084113      -1.49765940      -0.06442433        6 
C       0.48651025       1.38915931       0.37548255        6 
O       1.89448253      -1.10626788       0.64847377        8 
O       0.89747615      -2.16478850      -1.06782100        8 
O       0.47957298       1.64075115      -0.94892974        8 
O       1.36686175       1.78205135       1.10117205        8 
C       1.59607977       2.38923965      -1.46052820        6 
C       3.18345268      -1.46365247       0.11992561        6 
C      -1.74656538      -1.48991546      -0.18040139        6 
C      -1.67773522      -0.86934424      -1.56737882        6 
C      -1.86408338       0.44495015      -1.42288450        6 
C      -2.05952206       0.72656158       0.06171879        6 
C      -2.80804751      -0.57162130       0.46178818        6 
C      -0.86171737       0.81408086       2.34057900        6 
H       1.63576852       3.37984663      -1.00505292        1 
H       3.30350368      -1.06866633      -0.89016961        1 
H      -1.79432901       1.20471319      -2.18704210        1 
H       1.42465773       2.46472230      -2.53230417        1 
H       2.53130564       1.86527206      -1.25749482        1 
H       3.90590509      -1.01326570       0.79643001        1 
H       3.29828532      -2.54854885       0.09528185        1 
H      -2.53154257       1.67646019       0.31280187        1 
H      -1.91831697      -2.56467759      -0.14396038        1 
H      -1.65341116       0.20829575       2.77956932        1 
H       0.06758988       0.61465192       2.87407434        1 
H      -1.11362364       1.86668074       2.49437975        1 
H      -3.77575002      -0.65452714      -0.03449957        1 
H      -2.93963037      -0.71683013       1.53488884        1 
H      -1.41564663      -1.40660110      -2.46687109        1 
H      -0.45064955      -1.51863423       1.59405350        1 
