32
Lattice="0.0 0.0 0.0 0.0 0.0 0.0 0.0 0.0 0.0" Properties=species:S:1:pos:R:3:Z:I:1 pbc="F F F"
C      -0.67561691       0.24860932       0.85681189        6 
C       0.75789106       0.82906728       0.49296312        6 
C      -1.04114027      -1.12931979       0.32804923        6 
C       1.63568688      -0.09969403      -0.35540419        6 
O      -2.38224188      -1.24576914       0.19482234        8 
O      -0.28869378      -2.05094342       0.13014659        8 
O       2.30557751      -0.98600115       0.40190185        8 
O       1.78353889      -0.01371869      -1.55126814        8 
C       3.02517042      -2.00568770      -0.30982429        6 
C      -2.86548912      -2.53413609      -0.22776673        6 
C      -1.65411525       1.36786158       0.32111162        6 
C      -1.58460417       1.29014370      -1.19821288        6 
C      -0.37910150       1.73605226      -1.56356339        6 
C       0.36765825       2.13647449      -0.29773593        6 
C      -0.82057467       2.64174775       0.55626869        6 
C       1.53817405       1.17542784       1.78198716        6 
H       2.32007637      -2.63231550      -0.85811803        1 
H      -2.57484820      -3.30568791       0.48706966        1 
H       0.05393897       1.73115694      -2.55208195        1 
H       3.53610693      -2.58751265       0.45444123        1 
H       3.74126319      -1.56236127      -1.00269725        1 
H      -3.94831042      -2.43727123      -0.26824063        1 
H      -2.46537871      -2.78711982      -1.21073966        1 
H       1.21334708       2.80895447      -0.43726722        1 
H      -2.64580382       1.31988546       0.76460266        1 
H       0.98072450       1.87407033       2.40635775        1 
H       1.73914570       0.27681027       2.36493355        1 
H       2.49890891       1.63579061       1.53621023        1 
H      -1.29249403       3.52476223       0.12311392        1 
H      -0.58471461       2.83500351       1.60337880        1 
H      -2.34263854       0.84386107      -1.82715870        1 
H      -0.75782476       0.16664368       1.94606884        1 
