32
Lattice="0.0 0.0 0.0 0.0 0.0 0.0 0.0 0.0 0.0" Properties=species:S:1:pos:R:3:Z:I:1 pbc="F F F"
C      -0.08158952      -0.97172217       0.81379764        6 
C      -1.11782760       0.21583394       0.63999499        6 
C       1.39553858      -0.63475777       0.82650183        6 
C      -0.62337243       1.52900272       0.03476638        6 
O       2.04365553      -1.03203418      -0.28668831        8 
O       1.95567027      -0.14796395       1.78059985        8 
O       0.63808503       1.48665923      -0.42157185        8 
O      -1.32414135       2.50962300      -0.06297120        8 
C       1.13020877       2.68010194      -1.05584263        6 
C       3.44731904      -0.73207877      -0.33370742        6 
C      -0.57539408      -2.03638875      -0.22854839        6 
C      -0.46866537      -1.44151333      -1.62471254        6 
C      -1.40921972      -0.49869323      -1.73628619        6 
C      -2.13979157      -0.42703341      -0.40447927        6 
C      -2.09901492      -1.91519717       0.00276572        6 
C      -1.80894483       0.55392862       1.97238724        6 
H       0.52012599       2.92400271      -1.92679098        1 
H       3.97798387      -1.23823708       0.47436581        1 
H      -1.56001048       0.18799821      -2.55905468        1 
H       2.14984853       2.44818829      -1.35506198        1 
H       1.11399054       3.51661821      -0.35641876        1 
H       3.79016077      -1.09191045      -1.30176834        1 
H       3.60743160       0.34373254      -0.24446885        1 
H      -3.10124995       0.08339700      -0.40318708        1 
H      -0.12360885      -3.01735230      -0.08766644        1 
H      -2.31072649      -0.32639411       2.37897536        1 
H      -1.07638066       0.89521908       2.70838581        1 
H      -2.54737901       1.34260197       1.82590188        1 
H      -2.67902312      -2.54142230      -0.67706726        1 
H      -2.40933330      -2.10928166       1.03223350        1 
H       0.30570476      -1.68571934      -2.33703787        1 
H      -0.25211552      -1.37887103       1.81288738        1 
