32
Lattice="0.0 0.0 0.0 0.0 0.0 0.0 0.0 0.0 0.0" Properties=species:S:1:pos:R:3:Z:I:1 pbc="F F F"
C       0.85663454      -0.66723777      -0.66878797        6 
C       0.32361587       0.81733633      -0.58978003        6 
C      -0.00065225      -1.85585838      -0.29342009        6 
C      -0.89914082       1.01604123       0.31933636        6 
O      -1.31237703      -1.56145833      -0.22229523        8 
O       0.42598990      -2.98520943      -0.23697600        8 
O      -1.90621400       1.65245125      -0.32212561        8 
O      -0.98264249       0.69344933       1.47842471        8 
C      -3.09555875       1.87735290       0.45174534        6 
C      -2.20441931      -2.66042621       0.03548527        6 
C       2.28123956      -0.61801174      -0.01159777        6 
C       2.12431330      -0.26486060       1.45591138        6 
C       1.72126149       1.00740730       1.51973386        6 
C       1.59043355       1.52402868       0.09154013        6 
C       2.75362027       0.74345692      -0.56800074        6 
C       0.07004487       1.37629619      -1.99977009        6 
H      -3.51073314       0.92819463       0.79481214        1 
H      -1.94019296      -3.15171953       0.97244782        1 
H       1.41313573       1.54980138       2.40138575        1 
H      -3.78841414       2.37946703      -0.22041511        1 
H      -2.87866572       2.50380385       1.31852719        1 
H      -3.19563032      -2.21726125       0.10266471        1 
H      -2.16150121      -3.38653178      -0.77817960        1 
H       1.57393743       2.60676217      -0.03340525        1 
H       2.87804909      -1.49770929      -0.24389063        1 
H       0.96015610       1.26083220      -2.62001854        1 
H      -0.75379683       0.84762679      -2.48341177        1 
H      -0.18856501       2.43538431      -1.96630337        1 
H       3.72373511       1.04168435      -0.16910089        1 
H       2.77806521       0.79467890      -1.65837411        1 
H       2.20819664      -0.96855727       2.27285163        1 
H       1.02568409      -0.86479567      -1.73558039        1 
