32
Lattice="0.0 0.0 0.0 0.0 0.0 0.0 0.0 0.0 0.0" Properties=species:S:1:pos:R:3:Z:I:1 pbc="F F F"
C      -0.37110787      -0.94531427       0.60066009        6 
C      -0.75204649       0.59765861       0.70522884        6 
C       0.92181618      -1.26319093      -0.11630953        6 
C       0.11061955       1.51778515      -0.15978833        6 
O       1.91711597      -1.48379943       0.77115657        8 
O       1.06881548      -1.36513695      -1.31069461        8 
O       1.41036826       1.44723197       0.20560031        8 
O      -0.28058825       2.23208848      -1.04809854        8 
C       2.33272897       2.20999056      -0.59354161        6 
C       3.21051763      -1.75328332       0.20587469        6 
C      -1.65322839      -1.58963484      -0.02652653        6 
C      -1.84983425      -1.03331190      -1.42717954        6 
C      -2.21802744       0.24446910      -1.30363956        6 
C      -2.24773667       0.57230261       0.18262497        6 
C      -2.73034298      -0.78746250       0.73951456        6 
C      -0.65115813       1.10125874       2.15782019        6 
H       2.33533779       1.83508652      -1.61837949        1 
H       3.54903398      -0.90229197      -0.38787705        1 
H      -2.34960834       0.96927511      -2.09242493        1 
H       3.30590275       2.06678761      -0.12869678        1 
H       2.05849554       3.26545452      -0.59456422        1 
H       3.87199417      -1.91387400       1.05445932        1 
H       3.17583618      -2.64036236      -0.42843029        1 
H      -2.80607895       1.46325531       0.46723933        1 
H      -1.67162299      -2.67522250       0.06998880        1 
H      -1.31959650       0.53509837       2.80891038        1 
H       0.36782042       0.99564226       2.53275356        1 
H      -0.93438750       2.15613935       2.21928458        1 
H      -3.74168580      -1.03106847       0.41161791        1 
H      -2.66458955      -0.88496495       1.82598852        1 
H      -1.62117185      -1.56649066      -2.33837843        1 
H      -0.25325340      -1.31724446       1.61992077        1 
