32
Lattice="0.0 0.0 0.0 0.0 0.0 0.0 0.0 0.0 0.0" Properties=species:S:1:pos:R:3:Z:I:1 pbc="F F F"
C      -0.56507552      -1.00774384       0.58193880        6 
C      -0.84192082       0.54949786       0.71094407        6 
C       0.80758952      -1.64582788       0.49521888        6 
C       0.30313266       1.54464431       0.44651484        6 
O       1.77221433      -0.89094404      -0.05086855        8 
O       1.00295621      -2.77183481       0.89584884        8 
O       0.81050959       1.49345672      -0.79350946        8 
O       0.63740472       2.39313111       1.24299714        8 
C       1.87510866       2.40957964      -1.08407561        6 
C       3.07430523      -1.49845098      -0.14299908        6 
C      -1.54226747      -1.47791997      -0.56996155        6 
C      -1.12394385      -0.82268087      -1.86994805        6 
C      -1.41142778       0.47841647      -1.77189576        6 
C      -1.99921445       0.71950922      -0.38882746        6 
C      -2.77094062      -0.61208164      -0.21407061        6 
C      -1.38500046       0.86425074       2.11631728        6 
H       1.53709786       3.44243397      -0.98484451        1 
H       3.03238832      -2.39937991      -0.75650855        1 
H      -1.17390857       1.25458994      -2.48409014        1 
H       2.16419120       2.19738077      -2.11172370        1 
H       2.71491086       2.24258946      -0.40734776        1 
H       3.70892560      -0.74668714      -0.60730627        1 
H       3.44555901      -1.75761956       0.84949499        1 
H      -2.55857337       1.64586787      -0.25738443        1 
H      -1.67148604      -2.55914864      -0.58193186        1 
H      -2.23218814       0.22255606       2.36032007        1 
H      -0.61183127       0.71203300       2.87181074        1 
H      -1.70631540       1.90453639       2.18380817        1 
H      -3.57358415      -0.71448281      -0.94543996        1 
H      -3.16449900      -0.78849447       0.78784313        1 
H      -0.60082179      -1.32015945      -2.67571511        1 
H      -0.95552023      -1.45880350       1.49665589        1 
