32
Lattice="0.0 0.0 0.0 0.0 0.0 0.0 0.0 0.0 0.0" Properties=species:S:1:pos:R:3:Z:I:1 pbc="F F F"
C       0.74324906      -0.62152890      -0.83320261        6 
C       0.44278009       0.90955326      -0.53063592        6 
C      -0.17680731      -1.73846869      -0.37800648        6 
C      -0.80775401       1.19595568       0.31145088        6 
O      -1.42937057      -1.34193257      -0.09552763        8 
O       0.17160605      -2.89513673      -0.33919223        8 
O      -1.88774683       1.44390332      -0.45906855        8 
O      -0.84655718       1.26090280       1.51603368        8 
C      -3.11920828       1.66940660       0.24214931        6 
C      -2.35067719      -2.37380809       0.30485147        6 
C       2.19074286      -0.83709170      -0.24679499        6 
C       2.05099873      -0.75954601       1.26589611        6 
C       1.78399444       0.51320351       1.57411890        6 
C       1.75073533       1.30747252       0.27209043        6 
C       2.82709269       0.53599111      -0.53006500        6 
C       0.34630702       1.70451023      -1.85157737        6 
H      -3.36525900       0.80633862       0.86306946        1 
H      -2.01676786      -2.83921452       1.23283739        1 
H       1.52880007       0.91564042       2.54205940        1 
H      -3.87172857       1.81325847      -0.53069926        1 
H      -3.04711451       2.55462908       0.87618560        1 
H      -3.30348464      -1.86972952       0.45042434        1 
H      -2.43178915      -3.13414754      -0.47287621        1 
H       1.86715841       2.38699357       0.36735627        1 
H       2.67778883      -1.72253543      -0.64826139        1 
H       1.24681392       1.57745006      -2.45277078        1 
H      -0.50783304       1.37666092      -2.44403440        1 
H       0.22293595       2.77197287      -1.65098326        1 
H       3.81743771       0.62990731      -0.08279422        1 
H       2.88487966       0.79342550      -1.58870085        1 
H       2.05062177      -1.61495192       1.92746441        1 
H       0.77967649      -0.74014078      -1.92249389        1 
