32
Lattice="0.0 0.0 0.0 0.0 0.0 0.0 0.0 0.0 0.0" Properties=species:S:1:pos:R:3:Z:I:1 pbc="F F F"
C       0.32288909      -0.84630389       0.72775356        6 
C      -1.10824761      -0.18114041       0.66096645        6 
C       1.52813125       0.06047860       0.60500348        6 
C      -1.14790328       1.28695469       0.20652364        6 
O       2.60213251      -0.62281075       0.15182380        8 
O       1.56742985       1.22896523       0.90345576        8 
O      -0.49926910       1.50491079      -0.95117031        8 
O      -1.74437205       2.15654525       0.79515436        8 
C      -0.41154380       2.87485196      -1.37598411        6 
C       3.82529583       0.12752809       0.03605894        6 
C       0.23596595      -2.06923143      -0.25354765        6 
C       0.08530295      -1.52692453      -1.66304957        6 
C      -1.13362675      -0.98651038      -1.75214699        6 
C      -1.81510969      -1.14942222      -0.39976694        6 
C      -1.21829415      -2.51591533       0.01562830        6 
C      -1.81909088      -0.24875546       2.02212842        6 
H      -1.40590479       3.29983942      -1.52102923        1 
H       4.13128874       0.51294361       1.00978676        1 
H      -1.54145083      -0.42506402      -2.58067949        1 
H       0.13678422       2.85051332      -2.31569631        1 
H       0.12919599       3.45941598      -0.63039903        1 
H       4.56127407      -0.57604269      -0.34693517        1 
H       3.69411817       0.96172447      -0.65476352        1 
H      -2.90005457      -1.04678083      -0.39083482        1 
H       1.02463042      -2.80120596      -0.09496551        1 
H      -1.83755420      -1.26966571       2.40528103        1 
H      -1.30811893       0.38384581       2.75051228        1 
H      -2.84577546       0.11026263       1.94011682        1 
H      -1.53389484      -3.31958527      -0.65127952        1 
H      -1.41372921      -2.80602898       1.04946991        1 
H       0.87515152      -1.49400987      -2.40097562        1 
H       0.43083753      -1.25505018       1.74093037        1 
