32
Lattice="0.0 0.0 0.0 0.0 0.0 0.0 0.0 0.0 0.0" Properties=species:S:1:pos:R:3:Z:I:1 pbc="F F F"
C      -0.63934545       0.95690239       0.52427002        6 
C       0.69183328       0.14463017       0.79584182        6 
C      -1.73920845       0.25374301      -0.24621819        6 
C       0.72293294      -1.23600299       0.15365545        6 
O      -2.71796881      -0.14931450       0.59265796        8 
O      -1.77781228       0.08851889      -1.44035468        8 
O       1.97714645      -1.59933366      -0.18757486        8 
O      -0.22839003      -1.96838343       0.03085890        8 
C       2.11585766      -2.91586414      -0.75480468        6 
C      -3.76912760      -0.92866292      -0.00509230        6 
C      -0.10959368       2.24079297      -0.21217145        6 
C       0.49571069       1.80953098      -1.54158194        6 
C       1.63394565       1.16215846      -1.27340322        6 
C       1.79460734       1.12851611       0.23856484        6 
C       1.17875443       2.49751540       0.60227479        6 
C       0.86617642      -0.12473498       2.30928072        6 
H       1.78303604      -3.67466081      -0.04483762        1 
H      -3.35396542      -1.83776554      -0.44268763        1 
H       2.27054659       0.63461584      -1.96981844        1 
H       3.17632353      -3.02884062      -0.96922120        1 
H       1.52639025      -2.99684188      -1.66927642        1 
H      -4.45097696      -1.16928235       0.80784819        1 
H      -4.28145979      -0.35450500      -0.77900688        1 
H       2.79085869       0.90536551       0.61532652        1 
H      -0.84826891       3.04090300      -0.25632663        1 
H       0.87515133       0.81124269       2.87066555        1 
H       0.04463030      -0.73966547       2.68407167        1 
H       1.80715033      -0.64649378       2.50217201        1 
H       1.76234007       3.33029269       0.20765293        1 
H       1.00393019       2.64682480       1.67051709        1 
H       0.01231405       1.91903852      -2.50093972        1 
H      -1.06202544       1.24582439       1.48680690        1 
