32
Lattice="0.0 0.0 0.0 0.0 0.0 0.0 0.0 0.0 0.0" Properties=species:S:1:pos:R:3:Z:I:1 pbc="F F F"
C      -0.58436024       0.50471194      -0.97668523        6 
C      -0.59477292      -0.98869094      -0.39953553        6 
C       0.70369144       1.28202927      -0.78804811        6 
C       0.59582053      -1.29978767       0.51666421        6 
O       0.64096433       2.19098750       0.20563196        8 
O       1.69472966       1.10741022      -1.45675512        8 
O       1.69325400      -1.59916889      -0.20279978        8 
O       0.58960622      -1.29504717       1.72444211        8 
C       2.90081461      -1.83679433       0.53869490        6 
C       1.84599522       2.93386457       0.46085071        6 
C      -1.91228923       1.11670304      -0.41174247        6 
C      -1.82041209       1.20462031       1.10434225        6 
C      -1.85592019      -0.04208435       1.58149323        6 
C      -1.96583732      -0.98646610       0.39122387        6 
C      -2.83706351      -0.11488984      -0.54778283        6 
C      -0.61342510      -2.01646809      -1.54977377        6 
H       3.15218316      -0.96434709       1.14379615        1 
H       2.14020440       3.50183363      -0.42291821        1 
H      -1.72042921      -0.36045930       2.60352013        1 
H       3.66788003      -2.01462376      -0.21136766        1 
H       2.78598523      -2.70473457       1.19016141        1 
H       1.60491922       3.60102102       1.28547672        1 
H       2.65637305       2.25834821       0.73914573        1 
H      -2.31821663      -1.99477172       0.60948627        1 
H      -2.21132206       2.02602262      -0.93258423        1 
H      -1.49446043      -1.87479181      -2.17738904        1 
H       0.27533489      -1.91684569      -2.17213393        1 
H      -0.64178714      -3.03555515      -1.15376679        1 
H      -3.83125360       0.06387133      -0.13680141        1 
H      -2.93069059      -0.49233564      -1.56877202        1 
H      -1.64921075       2.11597483       1.65761086        1 
H      -0.67317137       0.41357317      -2.06221733        1 
