32
Lattice="0.0 0.0 0.0 0.0 0.0 0.0 0.0 0.0 0.0" Properties=species:S:1:pos:R:3:Z:I:1 pbc="F F F"
C      -0.64749994       0.29664276       0.84492886        6 
C       0.84735557       0.71764393       0.49046775        6 
C      -1.22174039      -1.02317228       0.33524450        6 
C       1.70845746      -0.24855003      -0.32672595        6 
O      -2.55923672      -0.89672986       0.13573457        8 
O      -0.65726456      -2.07900026       0.20852250        8 
O       1.94518694      -1.39032913       0.33192934        8 
O       2.25637435       0.04160885      -1.36596931        8 
C       2.70009400      -2.39310902      -0.36545836        6 
C      -3.25355692      -2.09397513      -0.25405618        6 
C      -1.47561827       1.52613086       0.29057776        6 
C      -1.37717896       1.42986301      -1.22812049        6 
C      -0.12213682       1.74101223      -1.56666445        6 
C       0.62964659       2.06766635      -0.28488108        6 
C      -0.51166046       2.69863094       0.54391333        6 
C       1.64714366       0.94934115       1.79944221        6 
H       2.17787086      -2.68615687      -1.27743805        1 
H      -3.15209819      -2.86352202       0.51305907        1 
H       0.33653623       1.67580966      -2.54237758        1 
H       2.76192007      -3.23544626       0.31972608        1 
H       3.69514944      -2.02338246      -0.61862448        1 
H      -4.29506803      -1.79997631      -0.36655114        1 
H      -2.85896814      -2.47650040      -1.19682120        1 
H       1.55122544       2.63463511      -0.40316921        1 
H      -2.47727030       1.59489845       0.70678417        1 
H       1.15368897       1.68116978       2.43917827        1 
H       1.74572776       0.01656467       2.35509307        1 
H       2.65060348       1.32070254       1.57271837        1 
H      -0.87449291       3.62852941       0.10321829        1 
H      -0.27693657       2.86766855       1.59583393        1 
H      -2.16255190       1.05657144      -1.87088903        1 
H      -0.74265914       0.23777685       1.93422369        1 
