32
Lattice="0.0 0.0 0.0 0.0 0.0 0.0 0.0 0.0 0.0" Properties=species:S:1:pos:R:3:Z:I:1 pbc="F F F"
C       0.01388251      -0.96635410       0.76300208        6 
C      -1.08535062       0.16790397       0.68368861        6 
C       1.46942965      -0.55381700       0.77895537        6 
C      -0.73782923       1.47927190      -0.02941861        6 
O       2.16434486      -1.07237485      -0.25586679        8 
O       1.96791062       0.12805718       1.64104595        8 
O       0.56384729       1.64979401      -0.29746992        8 
O      -1.58870702       2.26845885      -0.37182481        8 
C       0.91423751       2.83336226      -1.03688876        6 
C       3.55628075      -0.71677743      -0.31506805        6 
C      -0.47182278      -2.04064602      -0.26227436        6 
C      -0.52984444      -1.41327711      -1.64563512        6 
C      -1.54833850      -0.54730180      -1.65381436        6 
C      -2.16011163      -0.54967263      -0.25807631        6 
C      -1.97639626      -2.03579815       0.10712164        6 
C      -1.65509995       0.52053203       2.06557449        6 
H       0.44268527       2.81703422      -2.02089409        1 
H       4.08092888      -1.06597347       0.57564313        1 
H      -1.82746238       0.13698492      -2.44348619        1 
H       1.99757344       2.80496781      -1.12852319        1 
H       0.59640814       3.72727158      -0.49955038        1 
H       3.94464362      -1.20650368      -1.20557480        1 
H       3.66587602       0.36611565      -0.39191162        1 
H      -3.15206408      -0.11349248      -0.16350841        1 
H       0.06520535      -2.98449690      -0.18398737        1 
H      -2.07639854      -0.36782585       2.54165953        1 
H      -0.86929126       0.91346049       2.71561865        1 
H      -2.44311221       1.26985386       1.97108036        1 
H      -2.57067018      -2.69114098      -0.53189048        1 
H      -2.17240080      -2.27187699       1.15611449        1 
H       0.19323438      -1.58926503      -2.42962680        1 
H      -0.10740095      -1.41260078       1.75644493        1 
