32
Lattice="0.0 0.0 0.0 0.0 0.0 0.0 0.0 0.0 0.0" Properties=species:S:1:pos:R:3:Z:I:1 pbc="F F F"
C       0.28237460       1.11840694       0.43636894        6 
C       0.74229114      -0.34221253       0.89173745        6 
C      -1.05837031       1.21478146      -0.25708361        6 
C      -0.23847342      -1.45760339       0.49992941        6 
O      -2.02515205       1.51943033       0.64286685        8 
O      -1.28810999       1.02256710      -1.42521450        8 
O      -0.28634615      -1.70084847      -0.81745941        8 
O      -0.90783799      -2.07245883       1.29919229        8 
C      -1.24083821      -2.68135741      -1.25720276        6 
C      -3.37194625       1.55301658       0.13663869        6 
C       1.49312846       1.62473055      -0.42906252        6 
C       1.59036049       0.77946390      -1.68716738        6 
C       2.00416222      -0.43531276      -1.31913927        6 
C       2.16917215      -0.42968181       0.19219826        6 
C       2.66440772       1.02710015       0.38089088        6 
C       0.87725378      -0.40193155       2.42380251        6 
H      -1.02243889      -3.65535838      -0.81651073        1 
H      -3.65123047       0.57639160      -0.26235561        1 
H       2.09362654      -1.31157776      -1.94421038        1 
H      -1.13928228      -2.71391022      -2.33965298        1 
H      -2.25113382      -2.37802932      -0.97888561        1 
H      -3.99658193       1.80826593       0.98977180        1 
H      -3.46791285       2.30332340      -0.64957543        1 
H       2.78148773      -1.22634065       0.61504742        1 
H       1.48199495       2.70503426      -0.57391118        1 
H       1.56015540       0.36590383       2.78695686        1 
H      -0.09214667      -0.25636718       2.90173081        1 
H       1.25623426      -1.37696484       2.73740903        1 
H       3.62714593       1.19485380      -0.10274400        1 
H       2.71316154       1.36692142       1.41673420        1 
H       1.26697465       1.09274030      -2.66870544        1 
H       0.20879267       1.72335447       1.34041647        1 
