32
Lattice="0.0 0.0 0.0 0.0 0.0 0.0 0.0 0.0 0.0" Properties=species:S:1:pos:R:3:Z:I:1 pbc="F F F"
C      -0.22589647      -0.99735079       0.58242292        6 
C      -0.82862157       0.46264232       0.72152892        6 
C       1.11550868      -1.18787538      -0.09681505        6 
C      -0.12863343       1.61484465       0.00775667        6 
O       2.09726195      -1.30600435       0.82741144        8 
O       1.31531783      -1.27042843      -1.28340660        8 
O       1.18529618       1.40915997      -0.17847539        8 
O      -0.67626332       2.66042955      -0.25234067        8 
C       1.91645095       2.46562217      -0.82645470        6 
C       3.42881313      -1.44924765       0.30750719        6 
C      -1.37887034      -1.76864085      -0.15937919        6 
C      -1.55333411      -1.14409892      -1.53717614        6 
C      -2.10861805       0.05996883      -1.36702617        6 
C      -2.28465398       0.27090888       0.12851469        6 
C      -2.60243611      -1.17328791       0.57001378        6 
C      -0.87074282       0.88927333       2.20742490        6 
H       1.48270499       2.67935526      -1.80371407        1 
H       3.69472085      -0.57947742      -0.29574675        1 
H      -2.28842491       0.81607736      -2.11887263        1 
H       2.93143420       2.08976270      -0.93378824        1 
H       1.90126039       3.36952445      -0.21590257        1 
H       4.07641226      -1.52318268       1.17866572        1 
H       3.50751037      -2.34743488      -0.30706102        1 
H      -2.96622765       1.06315021       0.43066366        1 
H      -1.25345063      -2.85088888      -0.13533008        1 
H      -1.42865643       0.16305650       2.80096477        1 
H       0.13896051       0.95869622       2.62107850        1 
H      -1.35429975       1.86302450       2.30953840        1 
H      -3.54835750      -1.53084535       0.16011043        1 
H      -2.59276136      -1.33001035       1.65122325        1 
H      -1.18826665      -1.57578787      -2.45720003        1 
H      -0.12031977      -1.40555738       1.58831626        1 
