32
Lattice="0.0 0.0 0.0 0.0 0.0 0.0 0.0 0.0 0.0" Properties=species:S:1:pos:R:3:Z:I:1 pbc="F F F"
C      -0.08457221      -1.05783911       0.77971734        6 
C      -0.99838105       0.25466343       0.71525666        6 
C       1.41209586      -0.84267724       0.67632510        6 
C      -0.21996294       1.52859477       0.35177228        6 
O       1.91057972      -1.14765013      -0.54185196        8 
O       2.09379697      -0.43310554       1.58299805        8 
O      -0.35766724       1.90793076      -0.93473075        8 
O       0.43004885       2.16311583       1.14544670        8 
C       0.35057086       3.09836867      -1.32338607        6 
C       3.32475012      -0.94467300      -0.71309885        6 
C      -0.77064628      -2.02878578      -0.23815500        6 
C      -0.64861521      -1.45600243      -1.64157057        6 
C      -1.44022948      -0.38313416      -1.70480011        6 
C      -2.09072439      -0.20536064      -0.33894569        6 
C      -2.25440413      -1.69713177       0.04850486        6 
C      -1.62844753       0.53719171       2.09356627        6 
H       0.00620159       3.95572638      -0.74324640        1 
H       3.88803914      -1.57663719      -0.02475435        1 
H      -1.54252365       0.30773596      -2.52758110        1 
H       0.12655726       3.23379237      -2.37958349        1 
H       1.42325893       2.97153920      -1.17077669        1 
H       3.53399375      -1.22030727      -1.74465981        1 
H       3.58553655       0.09925860      -0.53242428        1 
H      -2.98314424       0.41973499      -0.31185549        1 
H      -0.45733673      -3.06516940      -0.11357684        1 
H      -2.20882909      -0.31756207       2.44202567        1 
H      -0.85030775       0.75562255       2.82501206        1 
H      -2.29435913       1.40286558       2.04023646        1 
H      -2.93260541      -2.22259826      -0.62479607        1 
H      -2.56201138      -1.87286326       1.08131438        1 
H       0.03476168      -1.81536735      -2.39667534        1 
H      -0.21039728      -1.46316400       1.78651306        1 
