32
Lattice="0.0 0.0 0.0 0.0 0.0 0.0 0.0 0.0 0.0" Properties=species:S:1:pos:R:3:Z:I:1 pbc="F F F"
C      -0.38936481       0.79937126      -0.86324442        6 
C      -0.88770082      -0.67846845      -0.54762345        6 
C       1.09059442       1.10342461      -0.76661924        6 
C       0.00195674      -1.56900672       0.32439558        6 
O       1.41374168       1.77299178       0.36129564        8 
O       1.90145650       0.78233184      -1.60028159        8 
O       1.29723713      -1.50564219      -0.02055810        8 
O      -0.41644889      -2.30960550       1.18297154        8 
C       2.19779953      -2.37419769       0.68884321        6 
C       2.81143544       2.06291831       0.53781610        6 
C      -1.39917676       1.69866862      -0.08019235        6 
C      -1.29139160       1.39650044       1.40675217        6 
C      -1.80017547       0.17741965       1.60845251        6 
C      -2.22460556      -0.37025751       0.24928831        6 
C      -2.70065001       0.93391834      -0.42331108        6 
C      -1.13530730      -1.46796387      -1.84897096        6 
H       2.16273228      -2.16755827       1.75936055        1 
H       3.17790651       2.69353817      -0.27378151        1 
H      -1.80592066      -0.39476694       2.52459780        1 
H       3.18310387      -2.15605454       0.28304075        1 
H       1.93326040      -3.41859740       0.51597830        1 
H       2.88313127       2.58333091       1.49044256        1 
H       3.39000948       1.13805222       0.55914758        1 
H      -2.90881774      -1.21649719       0.26448338        1 
H      -1.34481008       2.74883026      -0.36555442        1 
H      -1.87287100      -0.95689733      -2.47146998        1 
H      -0.21018474      -1.56075213      -2.42180135        1 
H      -1.51362274      -2.46946071      -1.62710674        1 
H      -3.57899611       1.35501807       0.06781238        1 
H      -2.89051322       0.84752459      -1.49641774        1 
H      -0.79879790       2.03299005       2.12748328        1 
H      -0.58857384       0.94511943      -1.92891093        1 
