32
Lattice="0.0 0.0 0.0 0.0 0.0 0.0 0.0 0.0 0.0" Properties=species:S:1:pos:R:3:Z:I:1 pbc="F F F"
C      -0.69415787       0.88813904       0.56699921        6 
C       0.69903138       0.16337064       0.76507593        6 
C      -1.77874252       0.16879177      -0.21402536        6 
C       0.81440035      -1.19459224       0.08631535        6 
O      -2.69656051      -0.35159934       0.63221684        8 
O      -1.85271876       0.06960192      -1.41257854        8 
O       2.11149397      -1.54746926      -0.06030752        8 
O      -0.09880391      -1.90017539      -0.26227298        8 
C       2.34951077      -2.82354341      -0.68248506        6 
C      -3.71748632      -1.15876496       0.01962143        6 
C      -0.26895774       2.23012427      -0.14064531        6 
C       0.30971682       1.87792167      -1.50587043        6 
C       1.49506142       1.29475016      -1.30261075        6 
C       1.71779008       1.22955194       0.19902334        6 
C       1.03171459       2.54442113       0.63054009        6 
C       0.94510911      -0.11720836       2.26902744        6 
H       1.91384425      -3.62720970      -0.08664285        1 
H      -3.26053484      -2.00018542      -0.50353174        1 
H       2.13388918       0.82938544      -2.04094872        1 
H       3.43145926      -2.92541486      -0.73089704        1 
H       1.91535817      -2.84414579      -1.68334994        1 
H      -4.34385962      -1.50721054       0.83822150        1 
H      -4.30330069      -0.56819091      -0.68693642        1 
H       2.73834651       1.05443654       0.53293113        1 
H      -1.05573298       2.98430649      -0.13348878        1 
H       0.88137587       0.80391549       2.85057928        1 
H       0.19633117      -0.81246173       2.65787491        1 
H       1.93518689      -0.55193130       2.42239796        1 
H       1.54576178       3.42368604       0.23965771        1 
H       0.89297324       2.65250207       1.70884601        1 
H      -0.21668994       1.98558990      -2.44225311        1 
H      -1.10544923       1.11274955       1.55075819        1 
