32
Lattice="0.0 0.0 0.0 0.0 0.0 0.0 0.0 0.0 0.0" Properties=species:S:1:pos:R:3:Z:I:1 pbc="F F F"
C      -0.43690311      -1.05751481       0.57002487        6 
C      -0.72057954       0.49129833       0.84472529        6 
C       0.87786995      -1.39106494      -0.10488193        6 
C       0.41911058       1.40426438       0.36762923        6 
O       1.90148380      -1.20048182       0.75703547        8 
O       1.03013837      -1.77436345      -1.23824334        8 
O       0.50379339       1.49457624      -0.97271826        8 
O       1.20763457       1.94773471       1.10361898        8 
C       1.60474794       2.25839074      -1.49444136        6 
C       3.22409690      -1.42446082       0.23812761        6 
C      -1.70087079      -1.51889113      -0.23723932        6 
C      -1.68270898      -0.83698596      -1.59619677        6 
C      -1.93220638       0.45892743      -1.39477822        6 
C      -2.11331174       0.66923698       0.10090639        6 
C      -2.79251285      -0.67835927       0.46025918        6 
C      -0.87172845       0.75134834       2.35543792        6 
H       1.51897960       3.30546642      -1.19956705        1 
H       3.40867909      -0.78295114      -0.62505289        1 
H      -1.90217024       1.25231454      -2.12715196        1 
H       1.53829465       2.15537829      -2.57534744        1 
H       2.55214141       1.86127047      -1.12700992        1 
H       3.90018810      -1.17383091       1.05212868        1 
H       3.34641238      -2.46723554      -0.05924929        1 
H      -2.62339563       1.58421236       0.40218146        1 
H      -1.82730002      -2.60116032      -0.24377879        1 
H      -1.65295091       0.12651441       2.78671559        1 
H       0.06494712       0.54608633       2.87390894        1 
H      -1.12943877       1.79709626       2.53865690        1 
H      -3.76501717      -0.78582706      -0.02185662        1 
H      -2.89539412      -0.87271971       1.52898441        1 
H      -1.40020939      -1.31891350      -2.52011824        1 
H      -0.41323429      -1.55706273       1.54155168        1 
