32
Lattice="0.0 0.0 0.0 0.0 0.0 0.0 0.0 0.0 0.0" Properties=species:S:1:pos:R:3:Z:I:1 pbc="F F F"
C       0.12852438      -0.95526130       0.71961643        6 
C      -1.08122442       0.05831865       0.71361409        6 
C       1.53385012      -0.39663338       0.75711642        6 
C      -0.90211011       1.40895826       0.00883705        6 
O       2.32513505      -0.94433990      -0.19131991        8 
O       1.92278621       0.41547853       1.55994397        8 
O       0.35458564       1.69397450      -0.35628933        8 
O      -1.84485710       2.11147231      -0.27888827        8 
C       0.54165039       2.89921247      -1.11898039        6 
C       3.68511713      -0.47643328      -0.21803255        6 
C      -0.25868807      -2.03672811      -0.33590065        6 
C      -0.42576246      -1.36691956      -1.68942049        6 
C      -1.53656262      -0.62414456      -1.63829838        6 
C      -2.10220571      -0.74645483      -0.22669091        6 
C      -1.74208214      -2.21602836       0.06851001        6 
C      -1.64193920       0.31318019       2.11854550        6 
H      -0.00465654       2.83821127      -2.06177143        1 
H       4.18694380      -0.70012672       0.72474901        1 
H      -1.91355395       0.05321026      -2.39252862        1 
H       1.61271070       2.96298909      -1.29725303        1 
H       0.19276559       3.76548685      -0.55618157        1 
H       4.15937475      -1.00775276      -1.04049012        1 
H       3.71073648       0.60087159      -0.38896131        1 
H      -3.13293929      -0.42721612      -0.08914299        1 
H       0.38168958      -2.91602066      -0.30748253        1 
H      -1.96031431      -0.62526782       2.57913476        1 
H      -0.87881388       0.76365680       2.75798250        1 
H      -2.50186791       0.98351305       2.06905539        1 
H      -2.27812767      -2.90611546      -0.58516814        1 
H      -1.88167683      -2.51739948       1.11011130        1 
H       0.29049844      -1.42764030      -2.49722262        1 
H       0.06651247      -1.45423846       1.69457723        1 
