32
Lattice="0.0 0.0 0.0 0.0 0.0 0.0 0.0 0.0 0.0" Properties=species:S:1:pos:R:3:Z:I:1 pbc="F F F"
C      -0.39050388      -1.04285708       0.55224595        6 
C      -0.75708536       0.47252534       0.79979567        6 
C       1.00542119      -1.40492039       0.10182866        6 
C       0.20198713       1.50522550       0.20282894        6 
O       1.93409162      -0.73078830       0.81816504        8 
O       1.27860017      -2.28554095      -0.67626449        8 
O       0.76681370       1.09640800      -0.94931068        8 
O       0.39588500       2.60202245       0.67165231        8 
C       1.66265375       2.01795898      -1.59026053        6 
C       3.30739659      -1.04066643       0.52781878        6 
C      -1.55984885      -1.59490601      -0.32852105        6 
C      -1.53167052      -0.88283988      -1.66865320        6 
C      -1.90150378       0.38380650      -1.45860479        6 
C      -2.16272059       0.54764004       0.03082620        6 
C      -2.73914374      -0.85447837       0.34447210        6 
C      -0.92309116       0.79070292       2.29180962        6 
H       1.15161553       2.95330534      -1.82334472        1 
H       3.53230437      -0.83021945      -0.51928118        1 
H      -1.89247743       1.19475087      -2.17460986        1 
H       1.98434794       1.51843396      -2.50171575        1 
H       2.51699574       2.22905061      -0.94447812        1 
H       3.89428824      -0.39884982       1.18136707        1 
H       3.51610041      -2.09186637       0.73282200        1 
H      -2.74615599       1.41768352       0.32960563        1 
H      -1.59443119      -2.68208442      -0.36039656        1 
H      -1.66738824       0.13650035       2.74831199        1 
H       0.02420827       0.65182623       2.81843676        1 
H      -1.23371793       1.82629332       2.43189818        1 
H      -3.68770993      -1.03011799      -0.16489022        1 
H      -2.85174685      -1.07064001       1.40905647        1 
H      -1.16075295      -1.31816856      -2.58598941        1 
H      -0.46092801      -1.53838606       1.52876973        1 
