32
Lattice="0.0 0.0 0.0 0.0 0.0 0.0 0.0 0.0 0.0" Properties=species:S:1:pos:R:3:Z:I:1 pbc="F F F"
C      -0.82444190       0.53446484       0.60196304        6 
C       0.72605915       0.28624568       0.75102509        6 
C      -1.78891989      -0.61946903       0.42382882        6 
C       1.31573457      -0.90014574      -0.02922006        6 
O      -2.87050159      -0.22746999      -0.29841733        8 
O      -1.66717936      -1.72627600       0.87594255        8 
O       2.62079693      -0.64266818      -0.32811359        8 
O       0.81307763      -1.96695450      -0.25540695        8 
C       3.32897270      -1.70619251      -0.98549652        6 
C      -3.89136729      -1.22482273      -0.48345626        6 
C      -0.94114534       1.79989112      -0.30400075        6 
C      -0.27604399       1.50889732      -1.63813171        6 
C       1.04255393       1.44365309      -1.42491412        6 
C       1.27258639       1.62967383       0.07292128        6 
C       0.15817254       2.64978499       0.37706471        6 
C       1.14815442       0.11671448       2.21810181        6 
H       3.34610198      -2.60121212      -0.36150912        1 
H      -4.29245634      -1.54666518       0.47914247        1 
H       1.81132921       1.18032313      -2.13746994        1 
H       4.33743143      -1.32949925      -1.14428896        1 
H       2.85591369      -1.94808629      -1.93916221        1 
H      -4.66439466      -0.74179903      -1.07775078        1 
H      -3.48638743      -2.09082218      -1.00903090        1 
H       2.28756830       1.87403472       0.37621351        1 
H      -1.94829230       2.20779215      -0.34264480        1 
H       0.85659509       0.99227084       2.80391355        1 
H       0.66626215      -0.76366151       2.65020379        1 
H       2.23086581      -0.00281060       2.29770787        1 
H       0.32845250       3.60364531      -0.12454804        1 
H      -0.01917200       2.82226626       1.44209073        1 
H      -0.80578890       1.31471200      -2.56124090        1 
H      -1.13294415       0.88561936       1.59827442        1 
