32
Lattice="0.0 0.0 0.0 0.0 0.0 0.0 0.0 0.0 0.0" Properties=species:S:1:pos:R:3:Z:I:1 pbc="F F F"
C      -0.70925621       0.95978361       0.47502987        6 
C       0.60206104       0.14663013       0.78102764        6 
C      -1.90750173       0.25312959      -0.11620441        6 
C       0.78896995      -1.08902639      -0.10395234        6 
O      -2.29069331      -0.77020549       0.67541590        8 
O      -2.55866665       0.65671674      -1.04928724        8 
O       2.09218073      -1.46045399      -0.11894515        8 
O      -0.06884683      -1.73064138      -0.65664941        8 
C       2.39866342      -2.64423192      -0.87680346        6 
C      -3.39057801      -1.56154657       0.19754206        6 
C      -0.21666532       2.24056056      -0.25228458        6 
C       0.50505155       1.83108057      -1.52554517        6 
C       1.66142462       1.26045060      -1.16910174        6 
C       1.70283117       1.22601066       0.35566741        6 
C       0.99220052       2.56179140       0.66148684        6 
C       0.70465444      -0.28955894       2.24930540        6 
H       1.87289797      -3.50859044      -0.46771646        1 
H      -3.12115391      -2.03616590      -0.74729138        1 
H       2.38568360       0.78335438      -1.81526450        1 
H       3.47519947      -2.77461806      -0.78931734        1 
H       2.11022371      -2.51298835      -1.92102625        1 
H      -3.56238975      -2.31422710       0.96422967        1 
H      -4.28011101      -0.94525292       0.05772866        1 
H       2.67430821       1.04318171       0.80993854        1 
H      -0.99154054       2.99667841      -0.36127087        1 
H       0.67210676       0.58378092       2.90492497        1 
H      -0.12962459      -0.94434234       2.51154477        1 
H       1.64123103      -0.82039227       2.43148441        1 
H       1.56746794       3.42109271       0.31411505        1 
H       0.72428785       2.70167423       1.71249785        1 
H       0.08874010       1.91751205      -2.51967515        1 
H      -1.08734349       1.28249963       1.45280467        1 
