32
Lattice="0.0 0.0 0.0 0.0 0.0 0.0 0.0 0.0 0.0" Properties=species:S:1:pos:R:3:Z:I:1 pbc="F F F"
C      -0.27299237       0.86742658       0.67143701        6 
C       1.05258224       0.00673385       0.67969601        6 
C      -1.63050173       0.20070749       0.64260816        6 
C       1.11535557      -1.30840301      -0.11311429        6 
O      -2.49068012       0.86631514      -0.16508669        8 
O      -1.94394869      -0.77424331       1.27711732        8 
O      -0.05268020      -1.94254945      -0.25000740        8 
O       2.14635221      -1.71914632      -0.59757053        8 
C      -0.03133741      -3.17742438      -0.98857990        6 
C      -3.83188477       0.34706281      -0.21302196        6 
C       0.03905496       2.06561874      -0.27508318        6 
C       0.37874654       1.52829269      -1.65498597        6 
C       1.57028083       0.92753166      -1.57125058        6 
C       2.02024868       1.00559406      -0.11343418        6 
C       1.45748223       2.39146162       0.25300912        6 
C       1.53016587      -0.30073381       2.10754407        6 
H       0.28157337      -2.99937238      -2.01869259        1 
H      -4.28977202       0.37682998       0.77717891        1 
H       2.08213781       0.36587141      -2.33962294        1 
H      -1.05359450      -3.54764621      -0.95381302        1 
H       0.65207715      -3.88933086      -0.52402535        1 
H      -4.36950398       0.99371665      -0.90330333        1 
H      -3.82879903      -0.68285228      -0.57335833        1 
H       3.07277553       0.80837815       0.07462478        1 
H      -0.71014987       2.85331329      -0.23321585        1 
H       1.69141515       0.62504160       2.66580813        1 
H       0.78103604      -0.89388161       2.63793651        1 
H       2.46973841      -0.85720456       2.08555400        1 
H       1.94382775       3.19100145      -0.30782377        1 
H       1.48594818       2.62496802       1.32062629        1 
H      -0.28113639       1.56875921      -2.51115481        1 
H      -0.30080188       1.30854667       1.67816075        1 
