32
Lattice="0.0 0.0 0.0 0.0 0.0 0.0 0.0 0.0 0.0" Properties=species:S:1:pos:R:3:Z:I:1 pbc="F F F"
C      -0.16436414      -0.94887437       0.61050496        6 
C      -0.86322474       0.47074247       0.68996607        6 
C       1.16439157      -1.10259003      -0.10339558        6 
C      -0.20113700       1.65431788      -0.00662501        6 
O       2.13669783      -1.42588065       0.78300091        8 
O       1.36544529      -0.99831203      -1.28767965        8 
O       1.13568282       1.54472480      -0.07567811        8 
O      -0.79791073       2.65940798      -0.31493004        8 
C       1.83852377       2.64088263      -0.68735281        6 
C       3.45294314      -1.59832142       0.23133607        6 
C      -1.27783728      -1.81726942      -0.10502738        6 
C      -1.46604650      -1.26307794      -1.51119479        6 
C      -2.08057815      -0.08109096      -1.40031168        6 
C      -2.29007214       0.18291158       0.08064919        6 
C      -2.54047346      -1.25651615       0.58092627        6 
C      -0.96734949       0.92307816       2.16889002        6 
H       1.49721119       2.77878800      -1.71397097        1 
H       3.78007180      -0.68295340      -0.26443684        1 
H      -2.28196048       0.63445259      -2.18554108        1 
H       2.88791932       2.35561277      -0.67086954        1 
H       1.67719067       3.56114787      -0.12409695        1 
H       4.09652196      -1.82671177       1.07827996        1 
H       3.46296373      -2.41726479      -0.49001820        1 
H      -3.01784781       0.94929879       0.33918671        1 
H      -1.09646629      -2.88926086      -0.02789985        1 
H      -1.49226264       0.17544306       2.76549722        1 
H       0.02616128       1.06414296       2.60218927        1 
H      -1.51445636       1.86552306       2.23701111        1 
H      -3.45928431      -1.68034200       0.17245691        1 
H      -2.54063117      -1.36805897       1.66758714        1 
H      -1.06354534      -1.71177340      -2.40731875        1 
H      -0.02302539      -1.31930074       1.62536472        1 
