32
Lattice="0.0 0.0 0.0 0.0 0.0 0.0 0.0 0.0 0.0" Properties=species:S:1:pos:R:3:Z:I:1 pbc="F F F"
C      -0.74490348       0.03347352      -0.91145790        6 
C       0.30076075      -1.09017182      -0.46123173        6 
C      -0.42482717       1.48988497      -0.61161168        6 
C       1.44808798      -0.62794926       0.44636935        6 
O      -1.42693791       2.10393327       0.05704267        8 
O       0.57075962       2.06998270      -0.96842248        8 
O       2.37487875       0.05822507      -0.23822692        8 
O       1.56947578      -0.90527434       1.61721707        8 
C       3.48084373       0.57472979       0.51915333        6 
C      -1.23103947       3.49932643       0.34687621        6 
C      -2.10392424      -0.50040352      -0.33907504        6 
C      -2.01828251      -0.45400698       1.18123039        6 
C      -1.15858395      -1.40213761       1.56348330        6 
C      -0.65037114      -2.09271070       0.30307042        6 
C      -1.92521907      -2.01585631      -0.56969375        6 
C       0.94039173      -1.75876704      -1.69872377        6 
H       3.12305464       1.24377583       1.30323078        1 
H      -1.11736458       4.07009574      -0.57618008        1 
H      -0.78550705      -1.59426233       2.55752889        1 
H       4.08973811       1.12070476      -0.19756906        1 
H       4.04906350      -0.23916277       0.97274174        1 
H      -2.12469745       3.81074625       0.88341435        1 
H      -0.34346191       3.63906943       0.96573697        1 
H      -0.19297166      -3.07144762       0.44457092        1 
H      -2.97348446      -0.02275817      -0.78771846        1 
H       0.17710287      -2.20899645      -2.33496267        1 
H       1.49666022      -1.02971463      -2.28774649        1 
H       1.63216918      -2.54979348      -1.39496421        1 
H      -2.74617450      -2.59901021      -0.15070881        1 
H      -1.78287676      -2.29540781      -1.61606134        1 
H      -2.49810682       0.29102129       1.79876958        1 
H      -0.78067538       0.00074035      -2.00553660        1 
