32
Lattice="0.0 0.0 0.0 0.0 0.0 0.0 0.0 0.0 0.0" Properties=species:S:1:pos:R:3:Z:I:1 pbc="F F F"
C      -0.73926682       0.78933629       0.55687109        6 
C       0.72409336       0.23318328       0.77178882        6 
C      -1.73383054      -0.05892113      -0.20938308        6 
C       0.95813908      -1.16849042       0.22495639        6 
O      -2.83313191      -0.28701767       0.54744704        8 
O      -1.61420432      -0.46437891      -1.33779574        8 
O       2.22670130      -1.32800850      -0.20906279        8 
O       0.14516720      -2.05904576       0.22845530        8 
C       2.55965767      -2.63984534      -0.70170469        6 
C      -3.84853285      -1.10808494      -0.05667369        6 
C      -0.46102118       2.14328602      -0.21998857        6 
C       0.13029258       1.78574348      -1.57684269        6 
C       1.36985651       1.33266291      -1.36835048        6 
C       1.61942175       1.36125179       0.12957137        6 
C       0.80850663       2.62065282       0.51201464        6 
C       1.01565178       0.08091676       2.28794916        6 
H       2.44525940      -3.38478384       0.08740506        1 
H      -3.44353956      -2.09326897      -0.29274838        1 
H       2.03872127       0.89165393      -2.09403818        1 
H       3.59767011      -2.57484099      -1.02052564        1 
H       1.91365870      -2.90397906      -1.54016848        1 
H      -4.63971535      -1.18489444       0.68624219        1 
H      -4.22413981      -0.64520931      -0.97089515        1 
H       2.65838439       1.31013691       0.44960889        1 
H      -1.32192395       2.81141775      -0.22685603        1 
H       0.88128566       1.02822521       2.81237334        1 
H       0.34114810      -0.65348938       2.73408050        1 
H       2.04462109      -0.25240566       2.44568875        1 
H       1.22690087       3.52780548       0.07306908        1 
H       0.67139289       2.76595637       1.58574416        1 
H      -0.41769567       1.78999743      -2.50780653        1 
H      -1.18033384       1.01540637       1.52640475        1 
