32
Lattice="0.0 0.0 0.0 0.0 0.0 0.0 0.0 0.0 0.0" Properties=species:S:1:pos:R:3:Z:I:1 pbc="F F F"
C      -0.79862987       0.55194090       0.63487887        6 
C       0.75544369       0.30907809       0.70971310        6 
C      -1.71189956      -0.40205537      -0.10862382        6 
C       1.24847828      -1.04750887       0.22278445        6 
O      -2.89777892      -0.48866548       0.55087893        8 
O      -1.49770068      -0.97292637      -1.14516282        8 
O       2.54460793      -0.97396649      -0.16581787        8 
O       0.61290485      -2.06879263       0.19922336        8 
C       3.12804018      -2.20639377      -0.62655223        6 
C      -3.90002847      -1.30869974      -0.07479337        6 
C      -0.86228491       1.94302247      -0.14990583        6 
C      -0.37344573       1.67030086      -1.56609313        6 
C       0.94142806       1.44235217      -1.49974800        6 
C       1.35184300       1.55784385      -0.04261349        6 
C       0.37343257       2.66132908       0.42469873        6 
C       1.19517140       0.30854707       2.20443728        6 
H       3.12066682      -2.95516121       0.16746271        1 
H      -3.53993117      -2.33272181      -0.18376737        1 
H       1.59083539       1.10784481      -2.29712821        1 
H       4.14888866      -1.95701777      -0.90826991        1 
H       2.57354931      -2.59057526      -1.48402991        1 
H      -4.76147409      -1.27236292       0.58886220        1 
H      -4.15868750      -0.91494432      -1.05958075        1 
H       2.41178549       1.70294204       0.15291252        1 
H      -1.82852232       2.43689025      -0.05374463        1 
H       0.87100512       1.21544273       2.71557269        1 
H       0.75806977      -0.54588120       2.72762287        1 
H       2.28276335       0.24038016       2.28046839        1 
H       0.56345479       3.61439265      -0.07102938        1 
H       0.33628215       2.81397584       1.50454331        1 
H      -1.01362008       1.55417946      -2.42920120        1 
H      -1.20377672       0.68857879       1.63555192        1 
