32
Lattice="0.0 0.0 0.0 0.0 0.0 0.0 0.0 0.0 0.0" Properties=species:S:1:pos:R:3:Z:I:1 pbc="F F F"
C      -0.68903890       0.30924675       0.80011817        6 
C       0.81190228       0.74272124       0.54727849        6 
C      -1.16341630      -1.01067705       0.22592981        6 
C       1.63318025      -0.24100197      -0.29830063        6 
O      -2.50763553      -1.10574241       0.35451109        8 
O      -0.49085062      -1.88972209      -0.25206225        8 
O       2.19645274      -1.19875011       0.46400894        8 
O       1.79436253      -0.17369099      -1.49188344        8 
C       2.81760240      -2.27897934      -0.25267131        6 
C      -3.10646977      -2.32135619      -0.13047262        6 
C      -1.52295613       1.52392452       0.22692952        6 
C      -1.35320046       1.47438534      -1.28332189        6 
C      -0.08905831       1.81493805      -1.55146391        6 
C       0.60115104       2.11063914      -0.22590725        6 
C      -0.59174052       2.70407595       0.56139420        6 
C       1.54224135       0.97066568       1.88762506        6 
H       2.07265170      -2.77850573      -0.87338240        1 
H      -2.69595858      -3.18633866       0.39282311        1 
H       0.40901523       1.79140905      -2.50819349        1 
H       3.19695386      -2.95433474       0.51163285        1 
H       3.63134992      -1.91053502      -0.87888493        1 
H      -4.17051598      -2.22057034       0.07247978        1 
H      -2.92898056      -2.43205950      -1.20143029        1 
H       1.51496559       2.70113922      -0.28327298        1 
H      -2.54257543       1.55459328       0.60381057        1 
H       1.01470007       1.69720448       2.50599746        1 
H       1.62325177       0.03819199       2.44577670        1 
H       2.55400338       1.34699050       1.71406108        1 
H      -0.94660644       3.64019862       0.12774773        1 
H      -0.41415684       2.84451186       1.62868631        1 
H      -2.09841488       1.10964497      -1.97783578        1 
H      -0.85693697       0.23432246       1.87974277        1 
