32
Lattice="0.0 0.0 0.0 0.0 0.0 0.0 0.0 0.0 0.0" Properties=species:S:1:pos:R:3:Z:I:1 pbc="F F F"
C       0.04590484      -0.97380938       0.55939055        6 
C      -0.88988044       0.29214854       0.79304406        6 
C       1.43646103      -0.89982936      -0.04979651        6 
C      -0.48673694       1.68251960       0.29807545        6 
O       2.36013514      -1.22960373       0.89333477        8 
O       1.74015661      -0.62554530      -1.18144229        8 
O       0.50137295       1.68354229      -0.59795362        8 
O      -1.04087460       2.69119987       0.67498219        8 
C       0.86841531       2.95324674      -1.16291456        6 
C       3.72824696      -1.23468603       0.45055117        6 
C      -0.86573701      -1.90417594      -0.34754328        6 
C      -1.05882328      -1.19583064      -1.68034909        6 
C      -1.86861769      -0.15447094      -1.46489670        6 
C      -2.21216124      -0.14254437       0.01348464        6 
C      -2.24392400      -1.65870295       0.29647675        6 
C      -1.17180532       0.44322490       2.30463637        6 
H       0.01445518       3.40337774      -1.67160790        1 
H       4.01810171      -0.24418062       0.09589932        1 
H      -2.13553434       0.62341857      -2.16798282        1 
H       1.66297426       2.72761281      -1.87055350        1 
H       1.22064122       3.63190353      -0.38463177        1 
H       4.31558856      -1.51686968       1.32184598        1 
H       3.86713954      -1.95664811      -0.35596517        1 
H      -3.07350468       0.45242744       0.31265558        1 
H      -0.50658408      -2.93218078      -0.39488601        1 
H      -1.52386972      -0.49412865       2.73683462        1 
H      -0.26154839       0.73425162       2.83622179        1 
H      -1.92205699       1.21469794       2.47485480        1 
H      -3.04944530      -2.15804176      -0.24437383        1 
H      -2.29677416      -1.92528262       1.35384093        1 
H      -0.53025582      -1.43803305      -2.59035847        1 
H       0.17096080      -1.45584184       1.52741630        1 
