32
Lattice="0.0 0.0 0.0 0.0 0.0 0.0 0.0 0.0 0.0" Properties=species:S:1:pos:R:3:Z:I:1 pbc="F F F"
C      -0.31569294      -0.95092481       0.59781653        6 
C      -0.78775700       0.56176519       0.71169634        6 
C       0.99152218      -1.20666982      -0.11963199        6 
C       0.02447390       1.56013349      -0.11042560        6 
O       1.97451147      -1.48678180       0.76510620        8 
O       1.15779093      -1.21884580      -1.31558967        8 
O       1.34322764       1.45896687       0.16094135        8 
O      -0.43121157       2.37983808      -0.86819403        8 
C       2.21567824       2.30957390      -0.60473436        6 
C       3.27467857      -1.72404943       0.20062133        6 
C      -1.55233101      -1.65567336      -0.06317794        6 
C      -1.74913785      -1.08295241      -1.45815651        6 
C      -2.19267413       0.16952581      -1.32061977        6 
C      -2.27207809       0.46510603       0.16976069        6 
C      -2.68716793      -0.92827398       0.69361253        6 
C      -0.73427551       1.05148554       2.17353660        6 
H       2.12257612       2.07886391      -1.66687894        1 
H       3.61201023      -0.84841302      -0.35638984        1 
H      -2.34482871       0.90313799      -2.09812962        1 
H       3.22024422       2.08796975      -0.25089048        1 
H       1.97194484       3.35936582      -0.43697413        1 
H       3.93000089      -1.91481713       1.04776167        1 
H       3.25146345      -2.58547800      -0.46886989        1 
H      -2.88209799       1.31937117       0.45897723        1 
H      -1.51222001      -2.74227476       0.01280094        1 
H      -1.37160623       0.43421563       2.80927630        1 
H       0.28539442       1.00512387       2.55983075        1 
H      -1.08444808       2.08515770       2.24501066        1 
H      -3.67688829      -1.22321759       0.34206302        1 
H      -2.63692267      -1.04059506       1.77950682        1 
H      -1.46908964      -1.58394617      -2.37321567        1 
H      -0.19259376      -1.33436734       1.61170243        1 
