32
Lattice="0.0 0.0 0.0 0.0 0.0 0.0 0.0 0.0 0.0" Properties=species:S:1:pos:R:3:Z:I:1 pbc="F F F"
C       0.77875971      -0.73037200       0.83632095        6 
C      -0.77112283      -0.45634196       0.66657731        6 
C       1.73126111       0.44232061       0.68327441        6 
C      -1.11711768       0.88783610       0.03195713        6 
O       2.23799452       0.56642686      -0.55516439        8 
O       2.08793181       1.12037153       1.61938375        8 
O      -2.46068107       1.03436264      -0.04594557        8 
O      -0.35099822       1.70752494      -0.40892792        8 
C      -2.93073549       2.23327964      -0.68764733        6 
C       3.04860534       1.72937178      -0.78794516        6 
C       1.01435226      -1.95440618      -0.12696340        6 
C       0.71280286      -1.52439959      -1.55554003        6 
C      -0.60837889      -1.35286506      -1.65770876        6 
C      -1.20989446      -1.64294385      -0.29334211        6 
C      -0.26367880      -2.76906521       0.18110975        6 
C      -1.48618381      -0.54378193       2.03291103        6 
H      -2.59075733       3.11592927      -0.14412458        1 
H       3.90899701       1.74264722      -0.11744563        1 
H      -1.15551671      -0.96028315      -2.50483996        1 
H      -4.01633735       2.16528169      -0.66753696        1 
H      -2.56746842       2.28308932      -1.71545018        1 
H       3.36966915       1.65704369      -1.82525239        1 
H       2.45008780       2.62863462      -0.63457043        1 
H      -2.28227223      -1.82794469      -0.26013612        1 
H       1.97352942      -2.44559527       0.03279911        1 
H      -1.28378869      -1.50405925       2.50975995        1 
H      -1.13038989       0.24290253       2.70370534        1 
H      -2.56434590      -0.43684765       1.91390183        1 
H      -0.35098538      -3.66331521      -0.43780831        1 
H      -0.37370157      -3.04106541       1.23325926        1 
H       1.46209934      -1.30567796      -2.30135652        1 
H       0.93583152      -1.06380197       1.86251218        1 
