32
Lattice="0.0 0.0 0.0 0.0 0.0 0.0 0.0 0.0 0.0" Properties=species:S:1:pos:R:3:Z:I:1 pbc="F F F"
C      -0.28485933      -0.89314748       0.61842571        6 
C      -0.67713530       0.64789297       0.65977635        6 
C       0.97907829      -1.29789578      -0.10512301        6 
C       0.17473973       1.53331559      -0.26358866        6 
O       1.79953821      -1.97651167       0.73984218        8 
O       1.25170180      -1.10121782      -1.26205427        8 
O       1.13352297       2.19324453       0.43407029        8 
O       0.09981042       1.60187424      -1.46207180        8 
C       2.05420211       2.96602947      -0.35709906        6 
C       3.02237345      -2.46912248       0.16405290        6 
C      -1.58058641      -1.59423010       0.04956446        6 
C      -1.79887810      -1.13666267      -1.37883336        6 
C      -2.16470944       0.14716655      -1.33404684        6 
C      -2.18181176       0.57125208       0.12643214        6 
C      -2.65382049      -0.75282112       0.77208200        6 
C      -0.63408127       1.17396342       2.10478817        6 
H       2.53849872       2.33235626      -1.10126792        1 
H       3.61257708      -1.64659834      -0.24273276        1 
H      -2.30098816       0.81473674      -2.17074525        1 
H       2.78123865       3.36184613       0.34911041        1 
H       1.53267461       3.77851727      -0.86590548        1 
H       3.55248734      -2.95528651       0.98024865        1 
H       2.80850609      -3.18275966      -0.63364988        1 
H      -2.74704353       1.47380004       0.36015962        1 
H      -1.58157532      -2.66984896       0.22651666        1 
H      -1.30533228       0.59885780       2.74348184        1 
H       0.37192287       1.10664276       2.51936748        1 
H      -0.94208771       2.22146229       2.14684003        1 
H      -3.66424780      -1.02132366       0.46105723        1 
H      -2.58649174      -0.78650828       1.86117109        1 
H      -1.56895724      -1.71999905      -2.25898246        1 
H      -0.15591962      -1.21632576       1.65167512        1 
