32
Lattice="0.0 0.0 0.0 0.0 0.0 0.0 0.0 0.0 0.0" Properties=species:S:1:pos:R:3:Z:I:1 pbc="F F F"
C      -0.80655067      -0.38247219      -0.67279010        6 
C       0.76645095      -0.33122731      -0.63050021        6 
C      -1.70490001       0.62727094       0.01845924        6 
C       1.44502207       0.95232897      -0.15878649        6 
O      -2.95125245       0.50609618      -0.52770317        8 
O      -1.45841958       1.39916213       0.90291380        8 
O       2.74932778       0.69226541       0.12998483        8 
O       0.96136986       2.04481864      -0.04418891        8 
C       3.52935770       1.82237135       0.55639723        6 
C      -3.97006668       1.34071590       0.04638679        6 
C      -1.08946857      -1.76786509       0.09367768        6 
C      -0.70887702      -1.51988122       1.55015008        6 
C       0.62336884      -1.42308763       1.60319814        6 
C       1.15191578      -1.61893820       0.19137530        6 
C       0.10841536      -2.62233989      -0.35221956        6 
C       1.28608044      -0.45861166      -2.09907721        6 
H       3.56727807       2.58082567      -0.22779071        1 
H      -3.70489452       2.39443048      -0.05393900        1 
H       1.22766987      -1.14087215       2.45465625        1 
H       4.52432655       1.43002972       0.75631348        1 
H       3.10079153       2.26419372       1.45733239        1 
H      -4.87689585       1.11947796      -0.51317498        1 
H      -4.10802496       1.10831633       1.10419527        1 
H       2.20349084      -1.87856150       0.09661917        1 
H      -2.09072547      -2.15007274      -0.09500828        1 
H       0.84340352      -1.31493243      -2.60829634        1 
H       1.02732736       0.43661848      -2.67114771        1 
H       2.37136458      -0.57358759      -2.11078338        1 
H       0.14840379      -3.57921515       0.17062252        1 
H       0.15693506      -2.79771181      -1.42727937        1 
H      -1.41121911      -1.32220677       2.34838075        1 
H      -1.15206264      -0.47226798      -1.70135599        1 
