32
Lattice="0.0 0.0 0.0 0.0 0.0 0.0 0.0 0.0 0.0" Properties=species:S:1:pos:R:3:Z:I:1 pbc="F F F"
C      -0.45091042      -1.05817222       0.58087566        6 
C      -0.70738831       0.49743723       0.84460720        6 
C       0.85163969      -1.43121069      -0.09840124        6 
C       0.45337332       1.38844306       0.37561262        6 
O       1.89482819      -1.17247159       0.71817403        8 
O       0.97491785      -1.90986552      -1.19915635        8 
O       0.48860767       1.56265010      -0.95946933        8 
O       1.29368438       1.85067073       1.10900824        8 
C       1.60271680       2.31140464      -1.47589357        6 
C       3.20521440      -1.43591246       0.18709535        6 
C      -1.72522233      -1.50542496      -0.21656411        6 
C      -1.68861900      -0.84377477      -1.58542487        6 
C      -1.90768694       0.46031278      -1.40201747        6 
C      -2.09066682       0.69536677       0.09093340        6 
C      -2.80118448      -0.63204740       0.46440648        6 
C      -0.86305939       0.76828187       2.35394241        6 
H       1.60204582       3.32676750      -1.07662643        1 
H       3.35313483      -0.89494514      -0.74893078        1 
H      -1.86134592       1.24266320      -2.14506151        1 
H       1.46657214       2.32047536      -2.55513547        1 
H       2.54299074       1.82496434      -1.21157685        1 
H       3.90012296      -1.08596022       0.94674626        1 
H       3.33531188      -2.50422451       0.00566074        1 
H      -2.58272474       1.62538495       0.37575440        1 
H      -1.87325335      -2.58474489      -0.20819927        1 
H      -1.65055101       0.15305586       2.78744765        1 
H       0.07058337       0.55999729       2.87629104        1 
H      -1.11428710       1.81739348       2.52885827        1 
H      -3.77329602      -0.72519266      -0.02140280        1 
H      -2.91386113      -0.81004440       1.53489950        1 
H      -1.41947242      -1.34667400      -2.50222242        1 
H      -0.42908263      -1.54990001       1.55701279        1 
