32
Lattice="0.0 0.0 0.0 0.0 0.0 0.0 0.0 0.0 0.0" Properties=species:S:1:pos:R:3:Z:I:1 pbc="F F F"
C       0.87180944      -0.64845980       0.80350719        6 
C      -0.69266704      -0.57836949       0.61180812        6 
C       1.81117542       0.52111810       0.56756863        6 
C      -1.29801766       0.78965572       0.31733782        6 
O       1.54399790       1.22878084      -0.53856028        8 
O       2.81659905       0.67697623       1.22480404        8 
O      -2.52899505       0.64001123      -0.23087386        8 
O      -0.80938682       1.86661298       0.54076452        8 
C      -3.24911650       1.85225133      -0.51249740        6 
C       2.43970689       2.30901814      -0.83980218        6 
C       1.26268216      -1.80715756      -0.22597162        6 
C       0.98559890      -1.28587460      -1.62924461        6 
C      -0.34045471      -1.21002750      -1.77609447        6 
C      -0.97150626      -1.68235729      -0.47788966        6 
C       0.05911494      -2.75727619      -0.05741861        6 
C      -1.37839737      -0.96345443       1.95762641        6 
H      -3.42966894       2.41333090       0.40612095        1 
H       3.44635876       1.93298377      -1.03189727        1 
H      -0.88710030      -0.78567948      -2.60754103        1 
H      -4.19023861       1.53386293      -0.95604610        1 
H      -2.68814764       2.47681649      -1.20934212        1 
H       2.02968082       2.78261077      -1.72935724        1 
H       2.47135449       3.01772532      -0.01127633        1 
H      -2.01779179      -1.97620503      -0.52504297        1 
H       2.25758648      -2.20891875      -0.04125970        1 
H      -1.01658676      -1.92300559       2.32871668        1 
H      -1.16585058      -0.21134581       2.72189332        1 
H      -2.46081136      -1.03145060       1.82962950        1 
H       0.08886137      -3.59064915      -0.76107319        1 
H      -0.06650394      -3.14332135       0.95532280        1 
H       1.74052307      -0.93510883      -2.31878143        1 
H       1.09913856      -0.99276760       1.81097499        1 
