32
Lattice="0.0 0.0 0.0 0.0 0.0 0.0 0.0 0.0 0.0" Properties=species:S:1:pos:R:3:Z:I:1 pbc="F F F"
C       0.78271011      -0.77219277       0.80639840        6 
C      -0.76054552      -0.44162685       0.69119058        6 
C       1.76803905       0.37290402       0.66042367        6 
C      -1.08104896       0.91861306       0.07756672        6 
O       2.22646225       0.52741522      -0.59435945        8 
O       2.17546787       1.01125535       1.60291127        8 
O      -2.41605333       1.03383898      -0.11470698        8 
O      -0.30277059       1.78502386      -0.23286666        8 
C      -2.86671940       2.25680834      -0.72381660        6 
C       3.05715633       1.67810675      -0.81955209        6 
C       0.94766843      -1.98160480      -0.18775105        6 
C       0.60275375      -1.51448784      -1.59424840        6 
C      -0.71658062      -1.30636095      -1.64043054        6 
C      -1.27194264      -1.60606677      -0.25787840        6 
C      -0.33954844      -2.76422733       0.15989983        6 
C      -1.43393426      -0.49613403       2.07934728        6 
H      -2.59765167       3.11436100      -0.10552626        1 
H       3.94479527       1.64480188      -0.18628473        1 
H      -1.28671702      -0.88113591      -2.45591703        1 
H      -3.94796873       2.16150589      -0.79758521        1 
H      -2.42323832       2.37434590      -1.71390563        1 
H       3.33275327       1.63655397      -1.87148028        1 
H       2.48908085       2.58507168      -0.60742196        1 
H      -2.34668807      -1.76296812      -0.18617850        1 
H       1.89787925      -2.50246854      -0.07492996        1 
H      -1.26680125      -1.46794621       2.54722260        1 
H      -1.01551927       0.26885238       2.73880150        1 
H      -2.50901904      -0.33420211       1.99349430        1 
H      -0.47829650      -3.64717126      -0.46631521        1 
H      -0.41388903      -3.04875633       1.21218397        1 
H       1.32839239      -1.29842575      -2.36403287        1 
H       0.95635160      -1.13777227       1.81920313        1 
