32
Lattice="0.0 0.0 0.0 0.0 0.0 0.0 0.0 0.0 0.0" Properties=species:S:1:pos:R:3:Z:I:1 pbc="F F F"
C      -0.54789431       0.66850619      -0.91175448        6 
C      -0.74705383      -0.82190624      -0.43189473        6 
C       0.73259708       1.44370705      -0.67637013        6 
C       0.41841132      -1.55535760       0.22079058        6 
O       1.21973202       1.33823412       0.57367050        8 
O       1.19404387       2.20309082      -1.49810465        8 
O       1.61046325      -1.18624972      -0.28710876        8 
O       0.28214093      -2.52656134       0.92759122        8 
C       2.74601444      -1.96555649       0.12565179        6 
C       2.41574060       2.08285830       0.84970655        6 
C      -1.75384186       1.40271852      -0.16586648        6 
C      -1.48196325       1.33814845       1.33205906        6 
C      -1.64046560       0.06806396       1.71731160        6 
C      -2.01984957      -0.73733009       0.48561658        6 
C      -2.84916845       0.32150277      -0.28078971        6 
C      -1.03607470      -1.71957325      -1.67335433        6 
H       2.87967550      -1.90104692       1.20652818        1 
H       2.25155720       3.15106217       0.69967357        1 
H      -1.43030341      -0.35920652       2.68812548        1 
H       3.59823574      -1.53161175      -0.39289154        1 
H       2.61372427      -3.01124065      -0.15671196        1 
H       2.65326757       1.87288686       1.89053765        1 
H       3.22593016       1.75193818       0.19724846        1 
H      -2.47425085      -1.70964474       0.66466673        1 
H      -1.96427181       2.38650632      -0.58310299        1 
H      -1.88069353      -1.33290037      -2.24321601        1 
H      -0.16837524      -1.75011708      -2.33631499        1 
H      -1.26962731      -2.73786871      -1.35607440        1 
H      -3.75922032       0.59554683       0.25405523        1 
H      -3.10090095       0.05156078      -1.30787842        1 
H      -1.11377880       2.16184754       1.92720338        1 
H      -0.71503055       0.73094327      -1.98633664        1 
