32
Lattice="0.0 0.0 0.0 0.0 0.0 0.0 0.0 0.0 0.0" Properties=species:S:1:pos:R:3:Z:I:1 pbc="F F F"
C      -0.43926402      -1.01337960       0.64165307        6 
C      -0.76335535       0.53451717       0.79065910        6 
C       0.91704202      -1.39425159       0.08997072        6 
C       0.30080553       1.48148715       0.22653737        6 
O       1.90068616      -0.89555176       0.87418974        8 
O       1.12396592      -2.08243778      -0.87780889        8 
O       0.75505960       1.09369449      -0.98093963        8 
O       0.70491409       2.47170453       0.78766828        8 
C       1.77284240       1.91161923      -1.58032698        6 
C       3.24692177      -1.15223620       0.43760930        6 
C      -1.64499961      -1.56985302      -0.19292110        6 
C      -1.56771699      -0.97413225      -1.58893437        6 
C      -1.86547352       0.32396481      -1.48620338        6 
C      -2.13643694       0.62127022      -0.01955956        6 
C      -2.79186544      -0.71979965       0.39482456        6 
C      -0.96810252       0.91683003       2.26575713        6 
H       1.39014638       2.91365440      -1.78086637        1 
H       3.40886044      -0.72870566      -0.55516703        1 
H      -1.80809685       1.07170448      -2.26528323        1 
H       2.03455498       1.40765696      -2.50827545        1 
H       2.63962995       1.98643174      -0.92160202        1 
H       3.88787717      -0.66740420       1.17048644        1 
H       3.44184395      -2.22512455       0.40406731        1 
H      -2.68254136       1.53916507       0.19728082        1 
H      -1.73911594      -2.65326282      -0.13731325        1 
H      -1.73024587       0.29055727       2.73001879        1 
H      -0.03688309       0.79311582       2.82262501        1 
H      -1.27023321       1.96072088       2.35830259        1 
H      -3.73831778      -0.88794977      -0.12080663        1 
H      -2.93635226      -0.84468429       1.46949071        1 
H      -1.21213136      -1.50247353      -2.46131022        1 
H      -0.47122674      -1.44244063       1.64778467        1 
