32
Lattice="0.0 0.0 0.0 0.0 0.0 0.0 0.0 0.0 0.0" Properties=species:S:1:pos:R:3:Z:I:1 pbc="F F F"
C      -0.57354671       1.03281052       0.47195971        6 
C       0.63854604       0.05843982       0.82162362        6 
C      -1.83142441       0.53286455      -0.20852331        6 
C       0.63823714      -1.32067254       0.14419716        6 
O      -2.40406678      -0.46053950       0.48685182        8 
O      -2.36130058       1.07906863      -1.14948384        8 
O       1.84352123      -1.61431125      -0.40032135        8 
O      -0.25217365      -2.13172111       0.18969470        8 
C       1.96784144      -2.92728142      -0.97473669        6 
C      -3.62410688      -1.00046345      -0.04581695        6 
C       0.10089895       2.24879517      -0.22353965        6 
C       0.72075823       1.75800924      -1.52063409        6 
C       1.77823398       1.00737766      -1.19814742        6 
C       1.85736158       0.95118229       0.32486340        6 
C       1.36036688       2.37368267       0.66087414        6 
C       0.69580543      -0.24065496       2.33190707        6 
H       1.80028318      -3.69449925      -0.21727898        1 
H      -3.46487026      -1.36742228      -1.06065166        1 
H       2.40691298       0.43525279      -1.86420461        1 
H       2.98478405      -2.98042717      -1.35784321        1 
H       1.24561661      -3.05876263      -1.78187760        1 
H      -3.88792497      -1.82186776       0.61636154        1 
H      -4.40893822      -0.24171827      -0.05482024        1 
H       2.81042369       0.63519437       0.74489764        1 
H      -0.55658755       3.11232596      -0.30135820        1 
H       0.76010290       0.68520091       2.90689516        1 
H      -0.20016162      -0.78210083       2.64187071        1 
H       1.57053182      -0.85115563       2.57366491        1 
H       2.04766933       3.14416773       0.30852395        1 
H       1.14124875       2.53712323       1.71904075        1 
H       0.30021388       1.92740599      -2.50192984        1 
H      -0.95641706       1.37685367       1.44082648        1 
