32
Lattice="0.0 0.0 0.0 0.0 0.0 0.0 0.0 0.0 0.0" Properties=species:S:1:pos:R:3:Z:I:1 pbc="F F F"
C      -0.59063044       0.68819833      -0.91811534        6 
C      -0.75533742      -0.82442954      -0.47586566        6 
C       0.74966303       1.36642131      -0.73136917        6 
C       0.41199586      -1.42890314       0.29803954        6 
O       1.14268924       1.41695420       0.55828276        8 
O       1.38552529       1.85712517      -1.63414494        8 
O       1.57824094      -1.24737280      -0.35732455        8 
O       0.31507318      -2.09476645       1.29949359        8 
C       2.74502546      -1.83383844       0.24318699        6 
C       2.42438259       2.01672148       0.80537649        6 
C      -1.79104084       1.39143995      -0.16630211        6 
C      -1.56837712       1.27440662       1.33485362        6 
C      -1.74228162      -0.00688122       1.67092384        6 
C      -2.06793946      -0.77191257       0.39749974        6 
C      -2.87585486       0.30788966      -0.36180733        6 
C      -0.93703926      -1.73455716      -1.71364223        6 
H       2.90080290      -1.42774778       1.24389024        1 
H       2.43532846       3.05531763       0.47130203        1 
H      -1.56472271      -0.46767870       2.63153642        1 
H       3.57158867      -1.57066762      -0.41318142        1 
H       2.63626208      -2.91753117       0.30962265        1 
H       2.56883768       1.95795122       1.88216313        1 
H       3.20767900       1.46579023       0.28140680        1 
H      -2.52612707      -1.75112535       0.52696684        1 
H      -2.00066148       2.38889237      -0.55169385        1 
H      -1.80999926      -1.42910380      -2.29211980        1 
H      -0.06080421      -1.68276376      -2.36163416        1 
H      -1.08266057      -2.77361120      -1.40576529        1 
H      -3.80946627       0.55568642       0.14449991        1 
H      -3.08127570       0.07259130      -1.40887570        1 
H      -1.22149512       2.07743739       1.96928781        1 
H      -0.77435504       0.75404086      -1.99093342        1 
