32
Lattice="0.0 0.0 0.0 0.0 0.0 0.0 0.0 0.0 0.0" Properties=species:S:1:pos:R:3:Z:I:1 pbc="F F F"
C      -0.74067842       0.31469646       0.88874457        6 
C       0.70404005       0.83796752       0.48483914        6 
C      -1.01471651      -1.14022184       0.57179140        6 
C       1.46105477      -0.17384291      -0.38732464        6 
O      -2.23494849      -1.33127140       0.03740007        8 
O      -0.25137878      -2.04302864       0.82456734        8 
O       2.57279576      -0.64245880       0.20872483        8 
O       1.12564130      -0.51952682      -1.49544925        8 
C       3.26640073      -1.68473969      -0.49978282        6 
C      -2.58355380      -2.69477648      -0.27162470        6 
C      -1.71565984       1.38296678       0.27447016        6 
C      -1.63487989       1.27904460      -1.23917476        6 
C      -0.42917335       1.72116033      -1.60477140        6 
C       0.31391806       2.13800101      -0.34326574        6 
C      -0.87910521       2.66223318       0.49423229        6 
C       1.52142963       1.20330953       1.73644692        6 
H       2.61693748      -2.55502688      -0.60436882        1 
H      -2.55383731      -3.30992428       0.62877380        1 
H       0.00663994       1.68824128      -2.59228007        1 
H       4.13311315      -1.92330656       0.11294190        1 
H       3.57424804      -1.34042027      -1.48807626        1 
H      -3.59299681      -2.65042083      -0.67449377        1 
H      -1.89146932      -3.10162889      -1.00998101        1 
H       1.16203110       2.80822601      -0.48438490        1 
H      -2.71293635       1.35145040       0.70978204        1 
H       0.98907696       1.93351843       2.34737209        1 
H       1.70911281       0.31888123       2.34664884        1 
H       2.48851485       1.62929619       1.46208224        1 
H      -1.34196587       3.54066919       0.04275483        1 
H      -0.64615088       2.87075010       1.53971114        1 
H      -2.37995316       0.80802823      -1.86414676        1 
H      -0.80837151       0.36316655       1.98120832        1 
