32
Lattice="0.0 0.0 0.0 0.0 0.0 0.0 0.0 0.0 0.0" Properties=species:S:1:pos:R:3:Z:I:1 pbc="F F F"
C       0.66210668      -0.72224847      -0.80611627        6 
C       0.51204398       0.84576875      -0.55028844        6 
C      -0.36159674      -1.65798460      -0.19439009        6 
C      -0.65509790       1.21099593       0.37633944        6 
O      -1.61834229      -1.30895810      -0.54624723        8 
O      -0.11083938      -2.62900451       0.47554336        8 
O      -1.75359665       1.58522258      -0.31123893        8 
O      -0.62059315       1.21581788       1.58363681        8 
C      -2.91828818       1.87803049       0.47578655        6 
C      -2.67579631      -2.14275423      -0.03812318        6 
C       2.11867526      -1.03447707      -0.31356328        6 
C       2.12853589      -0.87132766       1.19912421        6 
C       1.99900466       0.43239542       1.45815644        6 
C       1.91085879       1.16308613       0.12347905        6 
C       2.84357786       0.26263156      -0.72582676        6 
C       0.35741434       1.59654191      -1.88939291        6 
H      -3.22689135       0.99527073       1.03899553        1 
H      -2.67762497      -2.13126850       1.05293537        1 
H       1.86746904       0.89973986       2.42184381        1 
H      -3.68728665       2.16258407      -0.23940039        1 
H      -2.71906846       2.69325250       1.17276679        1 
H      -3.59562510      -1.71285278      -0.42904310        1 
H      -2.55409165      -3.16963171      -0.38595060        1 
H       2.12405973       2.23199563       0.14519963        1 
H       2.50476306      -1.97636814      -0.70021597        1 
H       1.19568741       1.38407489      -2.55316377        1 
H      -0.56325019       1.30291443      -2.39278925        1 
H       0.32113442       2.67662688      -1.72624696        1 
H       3.87401906       0.28978140      -0.37022829        1 
H       2.82583691       0.46551131      -1.79809780        1 
H       2.11349834      -1.69076179       1.90233851        1 
H       0.58753564      -0.88134889      -1.88708174        1 
