32
Lattice="0.0 0.0 0.0 0.0 0.0 0.0 0.0 0.0 0.0" Properties=species:S:1:pos:R:3:Z:I:1 pbc="F F F"
C       0.77752050      -0.83217477       0.74812540        6 
C      -0.74767929      -0.40939367       0.73753826        6 
C       1.79734118       0.28339368       0.63534871        6 
C      -1.02293962       0.95102459       0.09780289        6 
O       2.28279357       0.42523770      -0.61272989        8 
O       2.15119275       0.95496618       1.57395366        8 
O      -2.31523654       1.02734652      -0.29838505        8 
O      -0.25814210       1.87773031       0.00528055        8 
C      -2.73085389       2.28173994      -0.86653311        6 
C       3.13738283       1.56295377      -0.82361842        6 
C       0.83222208      -2.02013728      -0.26988476        6 
C       0.40341225      -1.52024373      -1.63962667        6 
C      -0.90841480      -1.27000860      -1.58638006        6 
C      -1.37141911      -1.56190285      -0.16471768        6 
C      -0.45472348      -2.75722473       0.17038254        6 
C      -1.33682456      -0.37532696       2.15860586        6 
H      -2.60163717       3.08996860      -0.14520454        1 
H       4.02508496       1.50056020      -0.19240998        1 
H      -1.52557688      -0.82110436      -2.35265465        1 
H      -3.78231694       2.15292223      -1.11435896        1 
H      -2.14965526       2.50469493      -1.76290908        1 
H       3.41133672       1.52965679      -1.87619419        1 
H       2.59043498       2.47851317      -0.59478486        1 
H      -2.44263713      -1.68379948      -0.01745881        1 
H       1.76805574      -2.57622336      -0.23151624        1 
H      -1.22928842      -1.35155836       2.63683565        1 
H      -0.81484745       0.36226023       2.77296822        1 
H      -2.39902894      -0.12275016       2.13172468        1 
H      -0.67637146      -3.62935993      -0.44745101        1 
H      -0.45726464      -3.04823500       1.22406758        1 
H       1.07850791      -1.31873842      -2.45853725        1 
H       0.97041173      -1.24541582       1.74087599        1 
