32
Lattice="0.0 0.0 0.0 0.0 0.0 0.0 0.0 0.0 0.0" Properties=species:S:1:pos:R:3:Z:I:1 pbc="F F F"
C      -0.30427491      -1.07492812       0.57581263        6 
C      -0.79272897       0.41481287       0.81617675        6 
C       1.08266341      -1.30096110       0.01383865        6 
C       0.05765744       1.54503557       0.23587657        6 
O       2.01818457      -0.93923093       0.92363807        8 
O       1.35121719      -1.76311878      -1.06629015        8 
O       0.84330907       1.15335172      -0.78040608        8 
O      -0.00110135       2.69111121       0.61662542        8 
C       1.61085298       2.17132891      -1.44336214        6 
C       3.38484475      -1.03533047       0.48898450        6 
C      -1.44446734      -1.69783381      -0.30277821        6 
C      -1.45323416      -0.97897672      -1.64236343        6 
C      -1.91235357       0.25787834      -1.43225436        6 
C      -2.19613703       0.39432313       0.05486312        6 
C      -2.67617094      -1.04298614       0.36327855        6 
C      -0.97791233       0.70497773       2.31535530        6 
H       0.95066366       2.92834219      -1.86932123        1 
H       3.55197706      -0.38758940      -0.37369169        1 
H      -1.95752609       1.07073646      -2.14516211        1 
H       2.15450687       1.65124897      -2.22918758        1 
H       2.29885284       2.64740178      -0.74323266        1 
H       3.98480690      -0.70729589       1.33508831        1 
H       3.63151187      -2.06283757       0.21763842        1 
H      -2.83471346       1.22389535       0.35543946        1 
H      -1.40942816      -2.78557273      -0.34141122        1 
H      -1.66087087      -0.01439447       2.76922068        1 
H      -0.02049587       0.63887736       2.83860208        1 
H      -1.37465071       1.70916719       2.46468288        1 
H      -3.60680739      -1.28142872      -0.15349426        1 
H      -2.78122216      -1.26835152       1.42678612        1 
H      -1.04463525      -1.38484706      -2.55591127        1 
H      -0.30455993      -1.56629402       1.55268059        1 
