32
Lattice="0.0 0.0 0.0 0.0 0.0 0.0 0.0 0.0 0.0" Properties=species:S:1:pos:R:3:Z:I:1 pbc="F F F"
C       0.80564383      -0.65920792      -0.74206936        6 
C       0.38716085       0.85801294      -0.56047061        6 
C      -0.10907746      -1.78655768      -0.31623714        6 
C      -0.83730791       1.07201595       0.34335742        6 
O      -1.40668825      -1.42451086      -0.28845611        8 
O       0.26222499      -2.92548474      -0.16197321        8 
O      -1.87221364       1.62500594      -0.32670299        8 
O      -0.90135781       0.81478312       1.52057040        8 
C      -3.07714485       1.81328460       0.43154701        6 
C      -2.35230884      -2.45359185       0.05434276        6 
C       2.24957015      -0.74656526      -0.13676067        6 
C       2.13684732      -0.51527140       1.35974397        6 
C       1.81036742       0.76760281       1.54094664        6 
C       1.69789875       1.41558872       0.16517091        6 
C       2.80140945       0.62504756      -0.58041652        6 
C       0.18235241       1.52897211      -1.93025497        6 
H      -3.42984985       0.85838814       0.82483096        1 
H      -2.16545027      -2.81373697       1.06683550        1 
H       1.55182403       1.25201670       2.47044615        1 
H      -3.79840863       2.23088400      -0.26809766        1 
H      -2.90699204       2.49905910       1.26299882        1 
H      -3.32983045      -1.98027518      -0.00749068        1 
H      -2.28271571      -3.28704429      -0.64595459        1 
H       1.75181568       2.50419848       0.13818589        1 
H       2.78363491      -1.63915995      -0.45499468        1 
H       1.06891892       1.40747958      -2.55357507        1 
H      -0.66649347       1.08733309      -2.45469779        1 
H      -0.01431650       2.59703326      -1.82055056        1 
H       3.79272519       0.82251323      -0.17171323        1 
H       2.81952997       0.77143475      -1.66211321        1 
H       2.19310393      -1.29303991       2.10880143        1 
H       0.89109212      -0.82707756      -1.82362341        1 
