32
Lattice="0.0 0.0 0.0 0.0 0.0 0.0 0.0 0.0 0.0" Properties=species:S:1:pos:R:3:Z:I:1 pbc="F F F"
C      -0.05625979       0.90628044       0.80525161        6 
C       1.17251282      -0.06994394       0.60438114        6 
C      -1.42603181       0.26816207       0.75387159        6 
C       0.81680484      -1.47287339       0.10220801        6 
O      -2.30371608       0.98819484       0.02696829        8 
O      -1.72428489      -0.74556622       1.33976019        8 
O      -0.07007843      -1.46343539      -0.91263321        8 
O       1.28395094      -2.49212590       0.54965091        8 
C      -0.53397468      -2.74933867      -1.35911272        6 
C      -3.64181269       0.46112140      -0.04424627        6 
C       0.24549667       2.10504689      -0.15936686        6 
C       0.18561596       1.60072169      -1.59096927        6 
C       1.24135767       0.80454243      -1.77971103        6 
C       2.01932155       0.75170711      -0.47403515        6 
C       1.77770942       2.19867894       0.02284290        6 
C       1.96461731      -0.24560036       1.90940928        6 
H       0.30023298      -3.36547054      -1.69711973        1 
H      -4.08779827       0.41384039       0.95038095        1 
H       1.45345632       0.19545699      -2.64765866        1 
H      -1.21470918      -2.54040413      -2.18207569        1 
H      -1.05601296      -3.25830991      -0.54745840        1 
H      -4.19213774       1.15173466      -0.67949561        1 
H      -3.63186186      -0.53910493      -0.47988150        1 
H       3.04925071       0.40145905      -0.53702562        1 
H      -0.34272310       2.99348505       0.06359732        1 
H       2.26736206       0.72005472       2.31557079        1 
H       1.35394202      -0.75729859       2.65599238        1 
H       2.85736544      -0.85009801       1.74425250        1 
H       2.23004092       2.93896907      -0.63812066        1 
H       2.09601529       2.38260325       1.05030627        1 
H      -0.63784109       1.77256668      -2.26954218        1 
H       0.00548133       1.28118492       1.83323262        1 
