32
Lattice="0.0 0.0 0.0 0.0 0.0 0.0 0.0 0.0 0.0" Properties=species:S:1:pos:R:3:Z:I:1 pbc="F F F"
C      -0.70045286       0.87505505       0.63891031        6 
C       0.71543760       0.16707675       0.72006393        6 
C      -1.82540537       0.18175664      -0.10804870        6 
C       0.84386380      -1.11601384      -0.09376421        6 
O      -2.46525443      -0.67819308       0.72072395        8 
O      -2.12922184       0.33512890      -1.26248125        8 
O       2.03959805      -1.70950759       0.14022207        8 
O       0.05597493      -1.55023505      -0.89539742        8 
C       2.30816565      -2.90058720      -0.62147333        6 
C      -3.46667075      -1.50562986       0.10114767        6 
C      -0.34618825       2.26666570      -0.00616156        6 
C       0.14187648       2.00967128      -1.42547060        6 
C       1.34690882       1.43884769      -1.34087444        6 
C       1.67553842       1.28879459       0.13447314        6 
C       0.99962105       2.56169103       0.69130643        6 
C       1.05940285      -0.15613298       2.19214741        6 
H       1.57002682      -3.67222530      -0.39696043        1 
H      -3.02035499      -2.08573919      -0.70767643        1 
H       1.93473994       1.02665101      -2.15037217        1 
H       3.30190629      -3.22139361      -0.31644129        1 
H       2.28360755      -2.68535788      -1.69089026        1 
H      -3.83382524      -2.15901978       0.89000622        1 
H      -4.27759494      -0.89380984      -0.29761862        1 
H       2.71893693       1.10935355       0.38861679        1 
H      -1.14212663       3.00254976       0.10173498        1 
H       0.95333566       0.73304313       2.81486007        1 
H       0.38326339      -0.92046521       2.58524139        1 
H       2.08163680      -0.52330507       2.28340906        1 
H       1.47166271       3.47111103       0.31681939        1 
H       0.93805153       2.60456925       1.78093380        1 
H      -0.45163728       2.16076850      -2.31420988        1 
H      -1.05396799       1.02591847       1.65987656        1 
