32
Lattice="0.0 0.0 0.0 0.0 0.0 0.0 0.0 0.0 0.0" Properties=species:S:1:pos:R:3:Z:I:1 pbc="F F F"
C      -0.56044495       0.52056496       0.77431573        6 
C       0.99848914       0.42218125       0.57806640        6 
C      -1.45208097      -0.48460367       0.07760229        6 
C       1.50980254      -0.79646697      -0.18713997        6 
O      -2.72655749      -0.32180493       0.51209786        8 
O      -1.14543689      -1.30780730      -0.74726807        8 
O       1.22592245      -1.93977164       0.46665427        8 
O       2.20378945      -0.75096181      -1.17371628        8 
C       1.57338930      -3.15672871      -0.21343178        6 
C      -3.71240865      -1.18566116      -0.08158088        6 
C      -0.88573570       1.95867591       0.16351708        6 
C      -0.66175814       1.83573420      -1.33731802        6 
C       0.65424866       1.71138310      -1.53509643        6 
C       1.33041027       1.76418064      -0.17301272        6 
C       0.37916917       2.74124828       0.55852222        6 
C       1.70895813       0.37041868       1.95489104        6 
H       1.02524696      -3.22093066      -1.15464931        1 
H      -3.48921141      -2.23052645       0.14107362        1 
H       1.16478567       1.49084409      -2.46087276        1 
H       1.27462521      -3.95997758       0.45691844        1 
H       2.64583721      -3.19740626      -0.40980635        1 
H      -4.66012789      -0.89459781       0.36627522        1 
H      -3.74081720      -1.04946159      -1.16380505        1 
H       2.39424204       1.99429324      -0.17718154        1 
H      -1.85132651       2.34352856       0.48553934        1 
H       1.46115169       1.24040634       2.56418088        1 
H       1.41987109      -0.52658961       2.50328505        1 
H       2.79379709       0.35226401       1.81891159        1 
H       0.39637142       3.73967658       0.11893724        1 
H       0.53734534       2.81750868       1.63552311        1 
H      -1.44789717       1.73662908      -2.07452104        1 
H      -0.81797400       0.50866642       1.83472876        1 
