32
Lattice="0.0 0.0 0.0 0.0 0.0 0.0 0.0 0.0 0.0" Properties=species:S:1:pos:R:3:Z:I:1 pbc="F F F"
C      -0.24517352      -0.99141499       0.58446742        6 
C      -0.81994833       0.48077955       0.71718011        6 
C       1.08976933      -1.19917527      -0.10195788        6 
C      -0.10021823       1.60505988      -0.02132388        6 
O       2.07493447      -1.33489951       0.81544370        8 
O       1.27933807      -1.28684115      -1.29023409        8 
O       1.22576947       1.40674555      -0.12036490        8 
O      -0.64236816       2.62687580      -0.37041854        8 
C       1.98052248       2.43708765      -0.78351404        6 
C       3.40032495      -1.50183360       0.28677641        6 
C      -1.41690857      -1.74859021      -0.13988977        6 
C      -1.59682475      -1.13295688      -1.52056939        6 
C      -2.12924954       0.08179623      -1.35455643        6 
C      -2.28418507       0.30899356       0.14134561        6 
C      -2.62178692      -1.12580316       0.59857391        6 
C      -0.83309942       0.92574232       2.19791771        6 
H       1.63012175       2.55826539      -1.80918115        1 
H       3.68167433      -0.63241656      -0.31004282        1 
H      -2.30344873       0.83535203      -2.10991741        1 
H       3.01200402       2.09232310      -0.77158944        1 
H       1.88298810       3.38447494      -0.25174261        1 
H       4.05099364      -1.59795936       1.15337422        1 
H       3.45593165      -2.39527852      -0.33712713        1 
H      -2.95061961       1.11436366       0.44291925        1 
H      -1.31013316      -2.83260112      -0.10619204        1 
H      -1.41716372       0.22981457       2.80276507        1 
H       0.18168135       0.95752461       2.60258848        1 
H      -1.27640663       1.91949370       2.29335730        1 
H      -3.57827590      -1.47044235       0.20228725        1 
H      -2.60180652      -1.27399204       1.68097592        1 
H      -1.24832648      -1.57804062      -2.44068928        1 
H      -0.13659112      -1.39318383       1.59273679        1 
