32
Lattice="0.0 0.0 0.0 0.0 0.0 0.0 0.0 0.0 0.0" Properties=species:S:1:pos:R:3:Z:I:1 pbc="F F F"
C      -0.61271628      -0.96757550       0.71066708        6 
C      -0.87921886       0.60679699       0.68770949        6 
C       0.83059411      -1.42120824       0.68640856        6 
C       0.39444718       1.43061959       0.43276141        6 
O       1.42404248      -1.25952809      -0.51377928        8 
O       1.40340828      -1.87863452       1.64732080        8 
O       0.68664094       1.61673019      -0.86448795        8 
O       1.06030372       1.91238840       1.31991332        8 
C       1.89852325       2.33579100      -1.14600713        6 
C       2.80906101      -1.64156311      -0.58970332        6 
C      -1.57069235      -1.51858698      -0.40871623        6 
C      -1.13506685      -0.99592431      -1.76609693        6 
C      -1.39775466       0.31250358      -1.79309740        6 
C      -1.99312537       0.69449496      -0.44657395        6 
C      -2.79219212      -0.60331209      -0.15662513        6 
C      -1.43661679       1.07600761       2.04392006        6 
H       1.85720873       3.34191406      -0.72629655        1 
H       2.92684565      -2.70257726      -0.36459849        1 
H      -1.14594609       1.01414682      -2.57372214        1 
H       1.96482592       2.37391085      -2.23142853        1 
H       2.75757580       1.80892002      -0.72753292        1 
H       3.11038914      -1.43099140      -1.61380479        1 
H       3.40278344      -1.05839756       0.11598441        1 
H      -2.54064194       1.63652476      -0.41287117        1 
H      -1.72900471      -2.59433112      -0.33049711        1 
H      -2.34011133       0.52485293       2.30499382        1 
H      -0.69830783       0.93061490       2.83222998        1 
H      -1.68253272       2.14032863       2.00828167        1 
H      -3.58656975      -0.76516271      -0.88593568        1 
H      -3.20200308      -0.67508886       0.85209250        1 
H      -0.61583297      -1.57711974      -2.51450026        1 
H      -0.97235295      -1.33509973       1.67271425        1 
