32
Lattice="0.0 0.0 0.0 0.0 0.0 0.0 0.0 0.0 0.0" Properties=species:S:1:pos:R:3:Z:I:1 pbc="F F F"
C       0.05628363      -0.83995468       0.69836622        6 
C      -1.00127909       0.33040327       0.64349815        6 
C       1.37759515      -0.64556796      -0.00655589        6 
C      -0.55812377       1.56293438      -0.14553114        6 
O       2.35111296      -1.33819243       0.63157081        8 
O       1.57252648      -0.02461567      -1.02253304        8 
O       0.50429756       2.15271499       0.44067974        8 
O      -1.10755679       2.00765314      -1.12204117        8 
C       1.09461343       3.24268630      -0.28902441        6 
C       3.65009337      -1.30973106       0.01325199        6 
C      -0.73534498      -2.05299671       0.04268866        6 
C      -0.96299074      -1.71225721      -1.42037101        6 
C      -1.85841499      -0.72133837      -1.46619422        6 
C      -2.23965700      -0.38029405      -0.03351093        6 
C      -2.14616459      -1.78749454       0.60450988        6 
C      -1.35291567       0.81775656       2.06781971        6 
H       1.41989520       2.89415446      -1.27023064        1 
H       4.02121019      -0.28538240      -0.04664991        1 
H      -2.17411652      -0.16033726      -2.33265864        1 
H       1.94671003       3.56287310       0.30671447        1 
H       0.37962629       4.05807061      -0.40809310        1 
H       4.28991252      -1.91255456       0.65399981        1 
H       3.60434761      -1.73207979      -0.99196256        1 
H      -3.16705276       0.17624846       0.09432868        1 
H      -0.27766522      -3.01758459       0.25874728        1 
H      -1.75141332       0.00232412       2.67320165        1 
H      -0.47251505       1.22055445       2.56991862        1 
H      -2.11001103       1.60586970       2.02380039        1 
H      -2.88740792      -2.47522895       0.19507992        1 
H      -2.19991772      -1.80312992       1.69498207        1 
H      -0.39880160      -2.12306169      -2.24654470        1 
H       0.27326853      -1.08942385       1.73733848        1 
