32
Lattice="0.0 0.0 0.0 0.0 0.0 0.0 0.0 0.0 0.0" Properties=species:S:1:pos:R:3:Z:I:1 pbc="F F F"
C       0.56990656      -0.80859758      -0.73203239        6 
C       0.58814215       0.78448991      -0.58675874        6 
C      -0.55909484      -1.57103730      -0.07057100        6 
C      -0.47591203       1.33419147       0.37250849        6 
O      -1.72755208      -1.34406778      -0.71012974        8 
O      -0.45395213      -2.33545473       0.85709677        8 
O      -1.65415468       1.53458963      -0.25511506        8 
O      -0.32159881       1.58471948       1.54290590        8 
C      -2.74013632       1.98944584       0.56840757        6 
C      -2.88331953      -2.01690403      -0.18104208        6 
C       1.98949953      -1.23648029      -0.23811313        6 
C       2.08880946      -0.93155748       1.24913006        6 
C       2.13157090       0.39678835       1.38170645        6 
C       2.05099829       1.00177721      -0.01487439        6 
C       2.83156199      -0.07507007      -0.80823593        6 
C       0.41552003       1.45941903      -1.96211280        6 
H      -2.92939375       1.28148542       1.37728368        1 
H      -3.05308482      -1.72700114       0.85730779        1 
H       2.10826663       0.96620588       2.29773182        1 
H      -3.59965655       2.05142938      -0.09570915        1 
H      -2.51535869       2.96691395       0.99816594        1 
H      -3.71458893      -1.70171754      -0.80809853        1 
H      -2.75390410      -3.09924557      -0.23143973        1 
H       2.38020784       2.03664136      -0.11149985        1 
H       2.25508340      -2.24833037      -0.54281435        1 
H       1.21174323       1.15630603      -2.64323281        1 
H      -0.54254267       1.19240062      -2.40720476        1 
H       0.45236867       2.54787491      -1.86441395        1 
H       3.87700871      -0.13235450      -0.50379825        1 
H       2.77464861       0.02540171      -1.89438216        1 
H       2.01528960      -1.67228041       2.03131587        1 
H       0.47233467      -1.02356747      -1.80051565        1 
