32
Lattice="0.0 0.0 0.0 0.0 0.0 0.0 0.0 0.0 0.0" Properties=species:S:1:pos:R:3:Z:I:1 pbc="F F F"
C      -0.43926927       0.83893730      -0.92083397        6 
C      -1.03553475      -0.58540519      -0.50818946        6 
C       1.07277774       0.93938275      -0.95948966        6 
C       0.03108049      -1.60197341      -0.07822780        6 
O       1.61979416       1.42913069       0.16775346        8 
O       1.72661068       0.64609565      -1.93405083        8 
O       0.64931790      -1.29027415       1.07677237        8 
O       0.32695693      -2.57992428      -0.72257676        8 
C       1.70329511      -2.18097449       1.48305724        6 
C       3.05520512       1.50748274       0.18807516        6 
C      -1.21822548       1.83461224       0.01788236        6 
C      -0.82452909       1.58485276       1.46599573        6 
C      -1.33565246       0.40389539       1.82174403        6 
C      -2.07318835      -0.16139924       0.61733056        6 
C      -2.61010832       1.16134656       0.01165590        6 
C      -1.77072156      -1.21732748      -1.70820586        6 
H       1.30929970      -3.18065621       1.67270527        1 
H       3.41534379       2.17287215      -0.59800782        1 
H      -1.17201941      -0.12755957       2.74808580        1 
H       2.10921666      -1.74855401       2.39509269        1 
H       2.46880586      -2.24254003       0.70799825        1 
H       3.30949908       1.89943826       1.17050942        1 
H       3.49048724       0.51729088       0.04423805        1 
H      -2.79915362      -0.94933111       0.81808280        1 
H      -1.16120080       2.86725169      -0.32617425        1 
H      -2.53480489      -0.54550497      -2.09921515        1 
H      -1.06857224      -1.44740516      -2.50982234        1 
H      -2.25290080      -2.15187980      -1.41315102        1 
H      -3.31336368       1.65916584       0.67971014        1 
H      -3.05619325       1.06497581      -0.97931183        1 
H      -0.16141989       2.21340772       2.04141045        1 
H      -0.73917070       1.01416664      -1.95462646        1 
