32
Lattice="0.0 0.0 0.0 0.0 0.0 0.0 0.0 0.0 0.0" Properties=species:S:1:pos:R:3:Z:I:1 pbc="F F F"
C      -0.29564486      -0.98743732       0.58268358        6 
C      -0.79057970       0.51529163       0.72177467        6 
C       1.03335915      -1.24304551      -0.09598266        6 
C      -0.03020256       1.57825111      -0.06769577        6 
O       2.02063945      -1.34573364       0.82234123        8 
O       1.21206103      -1.40581645      -1.27851493        8 
O       1.30106568       1.37767669      -0.05636799        8 
O      -0.54555057       2.54653196      -0.57260166        8 
C       2.09666212       2.33789551      -0.77522597        6 
C       3.34115459      -1.55555860       0.29756539        6 
C      -1.50706996      -1.69047666      -0.12040448        6 
C      -1.68828467      -1.07117783      -1.49840641        6 
C      -2.16034115       0.16697726      -1.32476004        6 
C      -2.27240759       0.40629008       0.17397766        6 
C      -2.66702957      -1.01071712       0.64237546        6 
C      -0.74203582       0.97751849       2.19363173        6 
H       1.79247613       2.37055625      -1.82200027        1 
H       3.62985406      -0.72236776      -0.34556967        1 
H      -2.31721725       0.92556272      -2.07809559        1 
H       3.12273457       1.98826281      -0.68587715        1 
H       1.98802260       3.32964777      -0.33405683        1 
H       3.99497331      -1.61331881       1.16520218        1 
H       3.38354715      -2.48139892      -0.27834040        1 
H      -2.89866841       1.24051269       0.48392339        1 
H      -1.44814515      -2.77806123      -0.08474459        1 
H      -1.36327259       0.33260353       2.81815824        1 
H       0.28037101       0.94084731       2.57654639        1 
H      -1.11271186       2.00154592       2.28614997        1 
H      -3.64661828      -1.31099301       0.26743789        1 
H      -2.62989817      -1.15752476       1.72483598        1 
H      -1.38220527      -1.53534258      -2.42430296        1 
H      -0.19799604      -1.38759359       1.59348007        1 
