32
Lattice="0.0 0.0 0.0 0.0 0.0 0.0 0.0 0.0 0.0" Properties=species:S:1:pos:R:3:Z:I:1 pbc="F F F"
C      -0.76157772       0.54580230       0.93329295        6 
C       0.77610218       0.63450459       0.53686358        6 
C      -1.42780526      -0.80762486       0.77078774        6 
C       1.27767287      -0.59192947      -0.22547839        6 
O      -2.14562484      -0.93117798      -0.35544545        8 
O      -1.40154493      -1.65423415       1.63653234        8 
O       2.55171894      -0.90882762       0.09359020        8 
O       0.65942609      -1.19163317      -1.07198746        8 
C       3.11785712      -2.02187936      -0.62208385        6 
C      -2.73405109      -2.22003338      -0.59523471        6 
C      -1.39686699       1.74843324       0.13558316        6 
C      -1.26654116       1.47997362      -1.35556737        6 
C       0.02457913       1.58974289      -1.67620262        6 
C       0.78273911       1.92062379      -0.40450078        6 
C      -0.27552170       2.79652319       0.31015874        6 
C       1.63155365       0.87265812       1.79659072        6 
H       2.53736369      -2.92695089      -0.43773168        1 
H      -3.38818735      -2.50583428       0.22955194        1 
H       0.48224436       1.35796985      -2.62793261        1 
H       4.12913284      -2.12895987      -0.23589655        1 
H       3.13356223      -1.81905752      -1.69410516        1 
H      -3.30003097      -2.11274585      -1.51824853        1 
H      -1.94867135      -2.96764778      -0.71556385        1 
H       1.78430963       2.33367873      -0.52410006        1 
H      -2.39218468       2.01403118       0.49069819        1 
H       1.25974465       1.73271720       2.35361827        1 
H       1.59330023       0.00370938       2.45687244        1 
H       2.67454206       1.05422348       1.53657721        1 
H      -0.47792591       3.71734078      -0.23831068        1 
H      -0.04305552       3.03523763       1.34967242        1 
H      -2.07167034       1.14553906      -1.99181238        1 
H      -0.83155541       0.75001917       2.00219461        1 
