32
Lattice="0.0 0.0 0.0 0.0 0.0 0.0 0.0 0.0 0.0" Properties=species:S:1:pos:R:3:Z:I:1 pbc="F F F"
C      -0.78085866       0.61833918       0.60675383        6 
C       0.74256903       0.20400528       0.68815229        6 
C      -1.80640409      -0.19295776      -0.16561748        6 
C       1.14788619      -1.10321089       0.01255879        6 
O      -2.81051578      -0.56330666       0.67437522        8 
O      -1.79695673      -0.47523033      -1.33371326        8 
O       2.49306608      -1.26999362       0.11782336        8 
O       0.44787981      -1.88222534      -0.57730723        8 
C       3.02768876      -2.44850708      -0.50960472        6 
C      -3.86766006      -1.33535987       0.07853377        6 
C      -0.68064821       2.05598112      -0.07262161        6 
C      -0.16863016       1.84682349      -1.49169897        6 
C       1.11863720       1.49750999      -1.40712548        6 
C       1.48177400       1.45549744       0.06634935        6 
C       0.59438283       2.60344540       0.59654808        6 
C       1.12527465       0.02580894       2.18428220        6 
H       2.60208429      -3.34803646      -0.06158803        1 
H      -3.46938012      -2.25434510      -0.35437944        1 
H       1.76294782       1.17104497      -2.21263694        1 
H       4.10126670      -2.40735088      -0.33773338        1 
H       2.80839129      -2.44571080      -1.57855027        1 
H      -4.55728108      -1.55924206       0.88987944        1 
H      -4.36938267      -0.76128710      -0.70277633        1 
H       2.54177284       1.47465276       0.31070785        1 
H      -1.59612055       2.63825406       0.03049643        1 
H       0.84641104       0.90279387       2.76906580        1 
H       0.60441344      -0.83611103       2.61163509        1 
H       2.19821619      -0.13483924       2.28977890        1 
H       0.89240364       3.57116580       0.19011178        1 
H       0.53273511       2.67012607       1.68425680        1 
H      -0.78518771       1.86241685      -2.37822657        1 
H      -1.16339625       0.73140490       1.61915493        1 
