32
Lattice="0.0 0.0 0.0 0.0 0.0 0.0 0.0 0.0 0.0" Properties=species:S:1:pos:R:3:Z:I:1 pbc="F F F"
C       0.09941723      -0.82496983       0.68622693        6 
C      -1.00164527       0.30027253       0.61285797        6 
C       1.41579059      -0.66863769      -0.04406434        6 
C      -0.65327050       1.62001345      -0.06692591        6 
O       2.41020489      -1.23089037       0.68905585        8 
O       1.59980119      -0.18518911      -1.13242301        8 
O       0.61430721       1.99643274       0.17091467        8 
O      -1.47510413       2.34809276      -0.57311920        8 
C       1.02552548       3.25046602      -0.39942707        6 
C       3.71199770      -1.23767344       0.07776096        6 
C      -0.66764423      -2.06190389       0.02251967        6 
C      -0.88156106      -1.71486581      -1.44420558        6 
C      -1.80009219      -0.74534538      -1.49753706        6 
C      -2.21537931      -0.43115336      -0.07071102        6 
C      -2.09352497      -1.83793679       0.56088227        6 
C      -1.37712835       0.75013932       2.05382766        6 
H       0.93432717       3.21352634      -1.48581177        1 
H       4.03196737      -0.22004103      -0.15115769        1 
H      -2.11609809      -0.18403490      -2.36567963        1 
H       2.06714350       3.37137678      -0.11070592        1 
H       0.41682646       4.06840335      -0.01111987        1 
H       4.37493587      -1.69270797       0.81058651        1 
H       3.69953515      -1.82331352      -0.84325398        1 
H      -3.15341100       0.10645937       0.05108484        1 
H      -0.18947896      -3.01739595       0.23493504        1 
H      -1.69067370      -0.09871635       2.66271503        1 
H      -0.52276722       1.22137517       2.54485608        1 
H      -2.19899653       1.46896320       2.02059927        1 
H      -2.80936173      -2.54229031       0.13471514        1 
H      -2.16660728      -1.86091491       1.64965740        1 
H      -0.29273997      -2.10312991      -2.26335089        1 
H       0.32200488      -1.06273997       1.72502670        1 
