32
Lattice="0.0 0.0 0.0 0.0 0.0 0.0 0.0 0.0 0.0" Properties=species:S:1:pos:R:3:Z:I:1 pbc="F F F"
C       0.69010095      -0.81378458      -0.73130546        6 
C       0.42000198       0.75072511      -0.63031688        6 
C      -0.30375650      -1.72834253      -0.04578093        6 
C      -0.75187294       1.10009910       0.28776373        6 
O      -1.44784850      -1.78679635      -0.77387329        8 
O      -0.15806541      -2.30671038       0.99890872        8 
O      -1.53837308       2.07366946      -0.22630883        8 
O      -0.95735110       0.61643202       1.37410201        8 
C      -2.65062032       2.47401890       0.59346010        6 
C      -2.52885437      -2.53074973      -0.18240421        6 
C       2.15055398      -0.96339963      -0.16583405        6 
C       2.12036591      -0.61344695       1.31483143        6 
C       1.91353957       0.70223560       1.41128599        6 
C       1.79571970       1.25236816      -0.00044513        6 
C       2.79359728       0.32116546      -0.73077593        6 
C       0.20708659       1.34120514      -2.03772969        6 
H      -3.31400665       1.62665850       0.77421636        1 
H      -2.79421474      -2.10160086       0.78497566        1 
H       1.71946701       1.26750826       2.31178368        1 
H      -3.16350906       3.24859717       0.02735663        1 
H      -2.30123458       2.86263181       1.55119699        1 
H      -3.35693477      -2.44731734      -0.88324797        1 
H      -2.24587991      -3.57575014      -0.04677454        1 
H       1.92878657       2.32774286      -0.11970192        1 
H       2.61102033      -1.91487759      -0.42926514        1 
H       1.02667320       1.06066693      -2.69991641        1 
H      -0.72187821       0.96941548      -2.47474905        1 
H       0.15007434       2.42997159      -2.00661459        1 
H       3.81564627       0.46335740      -0.37843000        1 
H       2.77050203       0.39177071      -1.81977862        1 
H       2.13083654      -1.33649865       2.11601510        1 
H       0.67243319      -1.07981216      -1.79076398        1 
