32
Lattice="0.0 0.0 0.0 0.0 0.0 0.0 0.0 0.0 0.0" Properties=species:S:1:pos:R:3:Z:I:1 pbc="F F F"
C      -0.66872551      -0.95007412       0.61796366        6 
C      -0.78287030       0.63108887       0.71299024        6 
C       0.63933768      -1.70184809       0.47931087        6 
C       0.48512398       1.46835931       0.45804468        6 
O       1.65559282      -0.99861163      -0.04414876        8 
O       0.74585231      -2.85876676       0.81858113        8 
O       0.88810191       1.49362601      -0.82226434        8 
O       1.00487055       2.15651329       1.30699571        8 
C       2.07165427       2.25478946      -1.09959603        6 
C       2.90380512      -1.70055040      -0.19143920        6 
C      -1.71347740      -1.34215998      -0.50252029        6 
C      -1.22546247      -0.78885702      -1.82724701        6 
C      -1.35115246       0.53988959      -1.77257901        6 
C      -1.90323497       0.89883554      -0.39961868        6 
C      -2.82847520      -0.32555083      -0.18095516        6 
C      -1.29644400       1.03056130       2.10860630        6 
H       1.93443984       3.30192099      -0.82550970        1 
H       2.77821178      -2.56944843      -0.83874483        1 
H      -1.03077500       1.25784049      -2.51229680        1 
H       2.23386988       2.15553980      -2.17131135        1 
H       2.92009306       1.84882366      -0.54575504        1 
H       3.58624453      -0.98241296      -0.64074172        1 
H       3.27383676      -2.02744001       0.78127615        1 
H      -2.34962817       1.88890694      -0.30663004        1 
H      -1.96682766      -2.40068999      -0.47486615        1 
H      -2.20951276       0.49016084       2.35795434        1 
H      -0.54755519       0.81113816       2.87099222        1 
H      -1.50398510       2.10120650       2.15376362        1 
H      -3.63831639      -0.35933972      -0.91092907        1 
H      -3.24069232      -0.41700670       0.82478892        1 
H      -0.77281198      -1.37457190      -2.61621902        1 
H      -1.06481999      -1.34933854       1.55438324        1 
