32
Lattice="0.0 0.0 0.0 0.0 0.0 0.0 0.0 0.0 0.0" Properties=species:S:1:pos:R:3:Z:I:1 pbc="F F F"
C       0.31249676      -1.14910510       0.67462122        6 
C      -0.90785645      -0.12809834       0.77805622        6 
C       1.68814800      -0.53098586       0.54672597        6 
C      -0.52854776       1.31094902       0.40777599        6 
O       2.01302557      -0.24046761      -0.73194483        8 
O       2.40078040      -0.27589476       1.48533245        8 
O      -1.22934042       1.80605521      -0.63134501        8 
O       0.24202569       1.98356436       1.04945012        8 
C      -0.95107596       3.17257133      -0.98523477        6 
C       3.26084277       0.45030730      -0.92249205        6 
C      -0.16149685      -2.18171308      -0.40029315        6 
C      -0.34250102      -1.48421788      -1.73701086        6 
C      -1.40917128      -0.68786936      -1.63303632        6 
C      -1.94229262      -0.81403145      -0.21000094        6 
C      -1.64116974      -2.31296145       0.03473278        6 
C      -1.44171658      -0.05353583       2.22133381        6 
H      -1.19793925       3.83984974      -0.15815960        1 
H       4.09393069      -0.15715831      -0.56559129        1 
H      -1.78137480       0.00914522      -2.36838128        1 
H      -1.58014158       3.38113915      -1.84813521        1 
H       0.10294923       3.29142172      -1.23936904        1 
H       3.33944440       0.61465041      -1.99535850        1 
H       3.25014007       1.39884993      -0.38394443        1 
H      -2.96494676      -0.47401151      -0.05065391        1 
H       0.43922896      -3.09094715      -0.40756940        1 
H      -1.74796504      -1.04005791       2.57375715        1 
H      -0.66966507       0.33302632       2.88818734        1 
H      -2.30835603       0.61169559       2.27513992        1 
H      -2.21567871      -2.96037358      -0.62903043        1 
H      -1.77228890      -2.64339552       1.06798540        1 
H       0.33541402      -1.56986013      -2.57396954        1 
H       0.35890370      -1.66675770       1.63457323        1 
