32
Lattice="0.0 0.0 0.0 0.0 0.0 0.0 0.0 0.0 0.0" Properties=species:S:1:pos:R:3:Z:I:1 pbc="F F F"
C      -0.02730987      -0.95226353       0.82191770        6 
C      -1.14820905       0.14976711       0.62615129        6 
C       1.40330874      -0.45687792       0.82959942        6 
C      -0.69619673       1.50304008       0.07556262        6 
O       2.16459414      -1.02836368      -0.12361807        8 
O       1.83437990       0.32178949       1.64720456        8 
O       0.40881279       1.42724694      -0.68839630        8 
O      -1.29385931       2.53700507       0.25950757        8 
C       0.88348123       2.66455033      -1.24641180        6 
C       3.53208288      -0.58817167      -0.18060874        6 
C      -0.42585546      -2.07889082      -0.19334092        6 
C      -0.32188193      -1.52595700      -1.60518918        6 
C      -1.31061971      -0.64213917      -1.76615024        6 
C      -2.08019105      -0.57174440      -0.45684268        6 
C      -1.96106823      -2.04631650      -0.00665375        6 
C      -1.91518701       0.41193626       1.93155181        6 
H       0.12270899       3.11054140      -1.88883452        1 
H       4.04972361      -0.81622897       0.75234569        1 
H      -1.47287571       0.01252854      -2.61226804        1 
H       1.76601693       2.40033145      -1.82509776        1 
H       1.13930694       3.36446337      -0.45006394        1 
H       3.97848329      -1.13253144      -1.01015865        1 
H       3.57420788       0.48739419      -0.35924238        1 
H      -3.07399296      -0.12786052      -0.49897413        1 
H       0.08175594      -3.02416273      -0.00754447        1 
H      -2.33718055      -0.51417816       2.32450708        1 
H      -1.24618294       0.82935851       2.68763291        1 
H      -2.72339469       1.12429623       1.76613571        1 
H      -2.47989736      -2.72438534      -0.68581896        1 
H      -2.29016075      -2.23302090       1.01764590        1 
H       0.48310204      -1.74405466      -2.29190941        1 
H      -0.16060644      -1.35208386       1.83156897        1 
