32
Lattice="0.0 0.0 0.0 0.0 0.0 0.0 0.0 0.0 0.0" Properties=species:S:1:pos:R:3:Z:I:1 pbc="F F F"
C      -0.21052869      -0.97958023       0.59405073        6 
C      -0.83937313       0.47119763       0.70895195        6 
C       1.12381599      -1.16405196      -0.10161604        6 
C      -0.14399897       1.62836312      -0.00066365        6 
O       2.10730164      -1.34988110       0.80981163        8 
O       1.31756781      -1.18870124      -1.29185162        8 
O       1.17974387       1.44734925      -0.13915489        8 
O      -0.70154904       2.66342949      -0.28118739        8 
C       1.91164357       2.51219971      -0.77234651        6 
C       3.43139385      -1.50898924       0.27456599        6 
C      -1.35657334      -1.78041126      -0.13389517        6 
C      -1.53589273      -1.18394132      -1.52354084        6 
C      -2.10543988       0.01656472      -1.37714722        6 
C      -2.28784658       0.25260973       0.11343334        6 
C      -2.58899617      -1.18719018       0.58097437        6 
C      -0.89757214       0.91103894       2.19221294        6 
H       1.53942015       2.67285593      -1.78479962        1 
H       3.72126718      -0.62030266      -0.28874000        1 
H      -2.29078566       0.75728495      -2.14279808        1 
H       2.94594198       2.17656874      -0.79621260        1 
H       1.81660000       3.43538599      -0.19911460        1 
H       4.08090494      -1.64455509       1.13676636        1 
H       3.47839176      -2.37858495      -0.38285583        1 
H      -2.98051901       1.04145409       0.39916432        1 
H      -1.21804193      -2.86041651      -0.08744134        1 
H      -1.45793555       0.18744500       2.78659895        1 
H       0.10784724       0.98874171       2.61432909        1 
H      -1.38722844       1.88303162       2.28076912        1 
H      -3.52893050      -1.56426817       0.17465014        1 
H      -2.58053539      -1.32439728       1.66473343        1 
H      -1.16278180      -1.62764999      -2.43455206        1 
H      -0.09095724      -1.37215948       1.60411831        1 
