32
Lattice="0.0 0.0 0.0 0.0 0.0 0.0 0.0 0.0 0.0" Properties=species:S:1:pos:R:3:Z:I:1 pbc="F F F"
C      -0.71304587       0.95581774       0.44862999        6 
C       0.59055930       0.13966915       0.77955861        6 
C      -1.92594253       0.25855699      -0.12442943        6 
C       0.79966551      -1.09562754      -0.10372417        6 
O      -2.27929558      -0.78968090       0.64618973        8 
O      -2.61819671       0.69772362      -1.01141643        8 
O       2.11544425      -1.42144440      -0.14900799        8 
O      -0.04812503      -1.78649593      -0.60994638        8 
C       2.44123451      -2.61073371      -0.88936275        6 
C      -3.40741915      -1.55704578       0.19667183        6 
C      -0.21080652       2.23185356      -0.27789015        6 
C       0.53979639       1.81919267      -1.53285725        6 
C       1.69047127       1.25525351      -1.14892028        6 
C       1.69735821       1.22423891       0.37724176        6 
C       0.97702874       2.56023044       0.66088142        6 
C       0.66605134      -0.30307691       2.24695220        6 
H       1.94970273      -3.48161597      -0.45253418        1 
H      -3.18702896      -2.00680130      -0.77272255        1 
H       2.43225934       0.78190094      -1.77716471        1 
H       3.52281638      -2.70758644      -0.82260479        1 
H       2.12755488      -2.50928825      -1.92969711        1 
H      -3.55048196      -2.33078377       0.94804705        1 
H      -4.29646587      -0.92961895       0.11569647        1 
H       2.65958530       1.04677372       0.85281870        1 
H      -0.98574480       2.98467206      -0.40585511        1 
H       0.61897393       0.56737746       2.90568825        1 
H      -0.17037825      -0.96228381       2.48986783        1 
H       1.60136819      -0.83129992       2.44408027        1 
H       1.55850254       3.41884885       0.32226047        1 
H       0.68525905       2.70530249       1.70484620        1 
H       0.14709843       1.90278495      -2.53699411        1 
H      -1.09463244       1.29094191       1.42184898        1 
