32
Lattice="0.0 0.0 0.0 0.0 0.0 0.0 0.0 0.0 0.0" Properties=species:S:1:pos:R:3:Z:I:1 pbc="F F F"
C      -0.30411572      -1.09818736       0.41512918        6 
C      -0.73870691       0.35757931       0.81952967        6 
C       1.12814561      -1.52181399       0.15400415        6 
C       0.07763094       1.54727381       0.30231484        6 
O       2.03987479      -0.55310796       0.35402246        8 
O       1.43387236      -2.68141887      -0.00889193        8 
O       0.64834092       1.33918216      -0.89421876        8 
O       0.11000391       2.62006305       0.86243781        8 
C       1.37158539       2.44240522      -1.45844718        6 
C       3.41896921      -0.96299655       0.30810357        6 
C      -1.42413859      -1.60377213      -0.56383678        6 
C      -1.46632209      -0.71558908      -1.79313974        6 
C      -1.93166192       0.47828237      -1.41221294        6 
C      -2.17459172       0.41970669       0.08888001        6 
C      -2.64682348      -1.04847696       0.20614314        6 
C      -0.88223617       0.50127911       2.33991634        6 
H       0.72199910       3.31105815      -1.57742800        1 
H       3.65810443      -1.38694289      -0.66801474        1 
H      -2.00143533       1.37422779      -2.01441385        1 
H       1.72454195       2.09143977      -2.42617663        1 
H       2.21391108       2.71170134      -0.81878724        1 
H       3.99442582      -0.05693024       0.48495372        1 
H       3.62246909      -1.70645711       1.08037499        1 
H      -2.81139163       1.19679736       0.50930592        1 
H      -1.37589388      -2.67733186      -0.73526718        1 
H      -1.56723039      -0.25039413       2.73633251        1 
H       0.08581157       0.37064287       2.83121661        1 
H      -1.25709444       1.49112896       2.59858653        1 
H      -3.58585184      -1.21701602      -0.32260064        1 
H      -2.73290013      -1.42039173       1.22935683        1 
H      -1.08725966      -0.99207059      -2.76803255        1 
H      -0.47810953      -1.68970835       1.32363805        1 
