32
Lattice="0.0 0.0 0.0 0.0 0.0 0.0 0.0 0.0 0.0" Properties=species:S:1:pos:R:3:Z:I:1 pbc="F F F"
C       0.89272212      -0.63095306       0.80461089        6 
C      -0.67289605      -0.60711001       0.61742018        6 
C       1.79915460       0.56048860       0.55545270        6 
C      -1.32011085       0.74632647       0.34670373        6 
O       1.44839300       1.31320627      -0.49616832        8 
O       2.84638273       0.70026789       1.14797434        8 
O      -2.50610021       0.57673275      -0.28678521        8 
O      -0.89518410       1.82665144       0.66474725        8 
C      -3.26184650       1.77203369      -0.54733262        6 
C       2.31869505       2.40894191      -0.81655878        6 
C       1.31566851      -1.77401289      -0.23270229        6 
C       1.02618752      -1.24510525      -1.63031893        6 
C      -0.30144853      -1.20137534      -1.77663633        6 
C      -0.92074865      -1.70590371      -0.48417124        6 
C       0.13861237      -2.75685798      -0.07488798        6 
C      -1.34669287      -1.02718445       1.95838153        6 
H      -3.52638708       2.26928839       0.38744487        1 
H       3.30779210       2.04442497      -1.10043273        1 
H      -0.85878767      -0.78082910      -2.60269574        1 
H      -4.15673510       1.44087783      -1.07018621        1 
H      -2.68639025       2.45976098      -1.16873023        1 
H       1.84281871       2.91985988      -1.65098319        1 
H       2.41371055       3.08033543       0.03768066        1 
H      -1.95853065      -2.02791824      -0.53684659        1 
H       2.32131731      -2.14819429      -0.04917033        1 
H      -0.96167682      -1.98272429       2.31620734        1 
H      -1.15345179      -0.27955267       2.73162500        1 
H      -2.42739445      -1.12157178       1.82917556        1 
H       0.19049960      -3.58190995      -0.78703114        1 
H       0.02397631      -3.15683324       0.93368211        1 
H       1.77237426      -0.86589215      -2.31467810        1 
H       1.13759862      -0.97035262       1.80986660        1 
