32
Lattice="0.0 0.0 0.0 0.0 0.0 0.0 0.0 0.0 0.0" Properties=species:S:1:pos:R:3:Z:I:1 pbc="F F F"
C      -0.53871894       0.74475146      -0.90449027        6 
C      -0.80845594      -0.76806186      -0.49851664        6 
C       0.87279803       1.27397666      -0.76590317        6 
C       0.27276777      -1.47000878       0.32103264        6 
O       1.20026014       1.58297600       0.50658223        8 
O       1.63399740       1.40686360      -1.69403177        8 
O       1.50100830      -1.26932787      -0.19320618        8 
O       0.05820747      -2.21693310       1.24503492        8 
C       2.58668752      -1.96535514       0.44236105        6 
C       2.55812077       2.00165766       0.71874256        6 
C      -1.67720830       1.51382567      -0.14068747        6 
C      -1.49358084       1.32729232       1.35863116        6 
C      -1.78255086       0.05492152       1.64662487        6 
C      -2.14141737      -0.63791739       0.33930120        6 
C      -2.84230967       0.52813951      -0.39574821        6 
C      -0.99899347      -1.64384569      -1.75728145        6 
H       2.68056898      -1.65266775       1.48361280        1 
H       2.76943339       2.91995120       0.16851807        1 
H      -1.66626206      -0.45102396       2.59397078        1 
H       3.47395321      -1.69245666      -0.12467568        1 
H       2.42190251      -3.04320127       0.40520839        1 
H       2.64778290       2.16676953       1.79041252        1 
H       3.24742820       1.22226499       0.38931189        1 
H      -2.67740868      -1.58168286       0.42332203        1 
H      -1.80271275       2.53877088      -0.48932738        1 
H      -1.83099255      -1.27315161      -2.35840355        1 
H      -0.09885234      -1.63145697      -2.37469790        1 
H      -1.21742558      -2.67742803      -1.47540961        1 
H      -3.76526744       0.83154494       0.09975938        1 
H      -3.04041980       0.34432696      -1.45488189        1 
H      -1.09820787       2.07888337       2.02646674        1 
H      -0.73700645       0.82824124      -1.97417219        1 
