32
Lattice="0.0 0.0 0.0 0.0 0.0 0.0 0.0 0.0 0.0" Properties=species:S:1:pos:R:3:Z:I:1 pbc="F F F"
C       0.75649546      -0.91433876      -0.65650533        6 
C       0.76384879       0.67403367      -0.71756119        6 
C      -0.53843449      -1.67936213      -0.50748102        6 
C      -0.61512474       1.31993633      -0.51320512        6 
O      -1.40783541      -1.11466559       0.35266245        8 
O      -0.75922545      -2.72148890      -1.07928150        8 
O      -0.87800640       1.69242998       0.74971807        8 
O      -1.36632344       1.56854943      -1.42824565        8 
C      -2.18096161       2.25158581       0.97857482        6 
C      -2.66215636      -1.79773201       0.52946042        6 
C       1.80527870      -1.24487727       0.47904606        6 
C       1.26198463      -0.74886104       1.80747304        6 
C       1.28952150       0.58581074       1.77428285        6 
C       1.83247203       1.00627670       0.41384278        6 
C       2.84686893      -0.14335413       0.18887706        6 
C       1.25338291       1.14806365      -2.10077234        6 
H      -2.30923702       3.17762577       0.41584828        1 
H      -2.49754808      -2.81859403       0.87623340        1 
H       0.90768032       1.26742624       2.51866558        1 
H      -2.23077641       2.44209752       2.04873059        1 
H      -2.95275971       1.54134704       0.67772965        1 
H      -3.20162598      -1.22105847       1.27780958        1 
H      -3.21525181      -1.82054210      -0.41062610        1 
H       2.20750885       2.02719414       0.34417978        1 
H       2.13999956      -2.28086882       0.44151262        1 
H       2.23058763       0.72745242      -2.33576732        1 
H       0.54865488       0.85000706      -2.87738470        1 
H       1.33426865       2.23776130      -2.12696884        1 
H       3.65076238      -0.13299325       0.92574399        1 
H       3.27442332      -0.19010811      -0.81402050        1 
H       0.84383666      -1.37868879       2.58091231        1 
H       1.16605840      -1.28696742      -1.59661773        1 
