32
Lattice="0.0 0.0 0.0 0.0 0.0 0.0 0.0 0.0 0.0" Properties=species:S:1:pos:R:3:Z:I:1 pbc="F F F"
C      -0.83835744      -0.44529474      -0.53586723        6 
C       0.71504605      -0.34013965      -0.68598117        6 
C      -1.66965403       0.79742694      -0.30793963        6 
C       1.38342198       0.71279060       0.20340207        6 
O      -2.96480443       0.43792976      -0.10641642        8 
O      -1.30276288       1.94261497      -0.32713208        8 
O       2.67758314       0.89205212      -0.16985479        8 
O       0.89958862       1.27904963       1.14691478        8 
C       3.43218418       1.81476370       0.63387308        6 
C      -3.89738534       1.51833267       0.07084580        6 
C      -1.08312600      -1.74824089       0.30340656        6 
C      -0.39673529      -1.62136529       1.65312611        6 
C       0.92241611      -1.66766737       1.44224192        6 
C       1.14128707      -1.76789206      -0.06212449        6 
C      -0.06634440      -2.65538230      -0.43429024        6 
C       1.13907921      -0.20002910      -2.15417358        6 
H       2.98297398       2.80835258       0.59628010        1 
H      -3.92211767       2.15406727      -0.81606736        1 
H       1.70581096      -1.50785151       2.17085286        1 
H       4.43051436       1.82803360       0.20129026        1 
H       3.46686898       1.47927792       1.67193398        1 
H      -4.86425501       1.04403676       0.22671340        1 
H      -3.62291683       2.12349249       0.93624620        1 
H       2.13030853      -2.08314495      -0.39145068        1 
H      -2.12585518      -2.05703881       0.31132340        1 
H       0.71850556      -1.01365681      -2.75012655        1 
H       0.77615154       0.74494243      -2.56817615        1 
H       2.22326749      -0.22065135      -2.25554859        1 
H       0.00963665      -3.65069045       0.00549101        1 
H      -0.25146841      -2.74410432      -1.50772255        1 
H      -0.90440064      -1.42641129       2.58797879        1 
H      -1.19156747      -0.72377095      -1.53922069        1 
