32
Lattice="0.0 0.0 0.0 0.0 0.0 0.0 0.0 0.0 0.0" Properties=species:S:1:pos:R:3:Z:I:1 pbc="F F F"
C       1.07389132       0.31174828      -0.81142085        6 
C      -0.40639726       0.84956431      -0.65881926        6 
C       1.51129990      -1.09083724      -0.41386527        6 
C      -1.50569815      -0.19117849      -0.45803085        6 
O       0.54835717      -1.87142416       0.08882512        8 
O       2.67747549      -1.41684692      -0.43905836        8 
O      -2.28164476       0.08824406       0.61274159        8 
O      -1.71999514      -1.11635440      -1.20011684        8 
C      -3.39225876      -0.80106104       0.82801069        6 
C       0.95114879      -3.17144369       0.55288420        6 
C       1.86854401       1.27929925       0.18309782        6 
C       1.45302033       0.84123984       1.58433044        6 
C       0.17965292       1.21091827       1.75272199        6 
C      -0.26418067       1.92356437       0.48251671        6 
C       1.07120524       2.58806222       0.07080595        6 
C      -0.83860045       1.52420790      -1.99398178        6 
H      -4.05112032      -0.80774635      -0.04171299        1 
H       1.65350037      -3.07902918       1.38293107        1 
H      -0.47448990       0.97139649       2.57880938        1 
H      -3.91214734      -0.41113435       1.70054290        1 
H      -3.03554114      -1.81523740       1.01373150        1 
H       0.03318899      -3.65747245       0.87603094        1 
H       1.41893055      -3.73585520      -0.25446719        1 
H      -1.14115549       2.56200363       0.57299447        1 
H       2.93527706       1.29834085      -0.02456048        1 
H      -0.12002516       2.27488143      -2.32194388        1 
H      -0.92874222       0.77010301      -2.77738552        1 
H      -1.80996804       2.01412945      -1.87878768        1 
H       1.40224220       3.33136777       0.79748443        1 
H       1.07363842       3.03216248      -0.92452570        1 
H       2.05766494       0.23265370       2.24368611        1 
H       1.42504494       0.46534547      -1.83327781        1 
