32
Lattice="0.0 0.0 0.0 0.0 0.0 0.0 0.0 0.0 0.0" Properties=species:S:1:pos:R:3:Z:I:1 pbc="F F F"
C      -0.60092048      -0.97029592       0.65077747        6 
C      -0.73076811       0.60629396       0.77132702        6 
C       0.69600092      -1.68444146       0.32500478        6 
C       0.51251147       1.43992332       0.41259982        6 
O       1.75624501      -0.88126258       0.14206695        8 
O       0.77190973      -2.89132325       0.29982274        8 
O       0.76731510       1.50766278      -0.90645337        8 
O       1.16151454       2.05457670       1.22591834        8 
C       1.94700180       2.23266272      -1.28183964        6 
C       3.01446871      -1.53472090      -0.10922980        6 
C      -1.76823796      -1.37995773      -0.32609420        6 
C      -1.42898195      -0.83572124      -1.70115926        6 
C      -1.54684427       0.49374639      -1.64078157        6 
C      -1.95682889       0.86170410      -0.21950630        6 
C      -2.84910656      -0.36517170       0.10191464        6 
C      -1.10390891       0.99113754       2.21539787        6 
H       1.88467893       3.27195590      -0.95588759        1 
H       2.96981333      -2.09205800      -1.04596994        1 
H      -1.30653717       1.20791107      -2.41384957        1 
H       1.99153673       2.17181276      -2.36761305        1 
H       2.82964423       1.77103992      -0.83590863        1 
H       3.74789739      -0.73405884      -0.17227769        1 
H       3.25847735      -2.21743136       0.70534215        1 
H      -2.39565783       1.85104579      -0.09042418        1 
H      -2.00816270      -2.43927636      -0.26414735        1 
H      -1.97519222       0.43431183       2.55931749        1 
H      -0.27392814       0.78381085       2.89221154        1 
H      -1.32423013       2.05817925       2.28786132        1 
H      -3.72843609      -0.40756559      -0.54180381        1 
H      -3.15799150      -0.44981019       1.14460036        1 
H      -1.06881643      -1.42926889      -2.53097280        1 
H      -0.85225265      -1.38164545       1.63369253        1 
