32
Lattice="0.0 0.0 0.0 0.0 0.0 0.0 0.0 0.0 0.0" Properties=species:S:1:pos:R:3:Z:I:1 pbc="F F F"
C      -0.74771601       0.64573565       0.65926361        6 
C       0.81202355       0.46414660       0.81870289        6 
C      -1.52351175      -0.48713108       0.03036234        6 
C       1.28766298      -0.95348198       0.48684459        6 
O      -2.83046664      -0.39811722       0.37128684        8 
O      -1.09242802      -1.33726047      -0.70868494        8 
O       2.04841234      -1.02332089      -0.61820118        8 
O       1.05203041      -1.90682800       1.18981566        8 
C       2.43190977      -2.34840545      -1.02936972        6 
C      -3.70089553      -1.39011704      -0.20394774        6 
C      -0.85563813       1.93255773      -0.27235078        6 
C      -0.34668422       1.52918141      -1.64647485        6 
C       0.97199575       1.34449121      -1.54343177        6 
C       1.36806779       1.62398350      -0.10106529        6 
C       0.35214413       2.74715776       0.22917359        6 
C       1.22693515       0.68240099       2.29251008        6 
H       3.03186483      -2.83260685      -0.25758648        1 
H      -3.39872744      -2.38972247       0.11207324        1 
H       1.64098210       0.96023921      -2.29850353        1 
H       3.01295303      -2.21232434      -1.93930515        1 
H       1.54005053      -2.94483113      -1.22568797        1 
H      -4.69511786      -1.15427671       0.16935190        1 
H      -3.67689417      -1.33597629      -1.29355847        1 
H       2.42300124       1.83130095       0.07378463        1 
H      -1.83941819       2.39744955      -0.23046162        1 
H       0.88576972       1.64659569       2.66930177        1 
H       0.80776214      -0.10564160       2.91874823        1 
H       2.31576690       0.64763213       2.38880659        1 
H       0.51931273       3.64335367      -0.37040211        1 
H       0.29657247       3.02265262       1.28328930        1 
H      -0.97358356       1.31241040      -2.50103900        1 
H      -1.20278014       0.86653537       1.62527258        1 
