32
Lattice="0.0 0.0 0.0 0.0 0.0 0.0 0.0 0.0 0.0" Properties=species:S:1:pos:R:3:Z:I:1 pbc="F F F"
C       0.14604001       1.11053132       0.41886188        6 
C       0.77787706      -0.27646241       0.89405902        6 
C      -1.20999713       1.07095198      -0.25167382        6 
C      -0.04176167      -1.52613243       0.53652697        6 
O      -2.16259543       1.52408253       0.60222769        8 
O      -1.46329001       0.68414555      -1.36521728        8 
O      -0.12377917      -1.76324635      -0.77853544        8 
O      -0.54472127      -2.25509345       1.36241306        8 
C      -0.92698703      -2.88410505      -1.18300979        6 
C      -3.51431905       1.49916000       0.10905085        6 
C       1.27892885       1.73573395      -0.48097668        6 
C       1.45285003       0.87780111      -1.72087161        6 
C       2.01143936      -0.27159567      -1.33434624        6 
C       2.19846334      -0.21155802       0.17308283        6 
C       2.52086135       1.29637282       0.32360369        6 
C       0.93830695      -0.28476157       2.42479709        6 
H      -0.52700765      -3.81272680      -0.77265604        1 
H      -3.81152863       0.47791201      -0.13525970        1 
H       2.18934135      -1.14631593      -1.94251862        1 
H      -0.88337460      -2.88932916      -2.26984607        1 
H      -1.95597935      -2.75489549      -0.84473716        1 
H      -4.12602403       1.89119976       0.91866977        1 
H      -3.60908407       2.12247499      -0.78151873        1 
H       2.90547171      -0.92166495       0.60205671        1 
H       1.13894173       2.80407779      -0.64652158        1 
H       1.51977573       0.57231992       2.76401968        1 
H      -0.03650591      -0.25563456       2.91368701        1 
H       1.44169229      -1.19610956       2.75290581        1 
H       3.45155393       1.56415927      -0.17734393        1 
H       2.54086533       1.66155492       1.35154270        1 
H       1.07836160       1.12667340      -2.70300751        1 
H       0.02614477       1.72739841       1.30938693        1 
