32
Lattice="0.0 0.0 0.0 0.0 0.0 0.0 0.0 0.0 0.0" Properties=species:S:1:pos:R:3:Z:I:1 pbc="F F F"
C      -0.27760286      -0.89090376       0.60988925        6 
C      -0.79199177       0.60775688       0.69077079        6 
C       1.03180968      -1.12175370      -0.10755844        6 
C       0.02673037       1.56679499      -0.17879982        6 
O       1.91356638      -1.75123447       0.70565241        8 
O       1.28416238      -0.83432081      -1.25222391        8 
O       1.21168424       1.84690311       0.41455425        8 
O      -0.26325254       1.97675670      -1.27236508        8 
C       2.15296064       2.57727943      -0.39342531        6 
C       3.19048261      -2.06662287       0.12265688        6 
C      -1.49870706      -1.66573763      -0.01445209        6 
C      -1.72639012      -1.16607212      -1.42841544        6 
C      -2.19841355       0.08051040      -1.34211410        6 
C      -2.27205331       0.44361499       0.13455734        6 
C      -2.64867915      -0.93828448       0.71931583        6 
C      -0.78821355       1.11638616       2.14402562        6 
H       2.38366067       2.00889514      -1.29588493        1 
H       3.69505122      -1.15702963      -0.20676170        1 
H      -2.38008761       0.76827668      -2.15298355        1 
H       3.03843632       2.69436714       0.22796755        1 
H       1.74726940       3.55081581      -0.67159297        1 
H       3.75744695      -2.55434990       0.91267299        1 
H       3.06654908      -2.73557825      -0.73050118        1 
H      -2.90911328       1.29063938       0.38813751        1 
H      -1.42064986      -2.74490725       0.11794718        1 
H      -1.43927195       0.50388093       2.76959013        1 
H       0.21750617       1.09066271       2.56439083        1 
H      -1.14766289       2.14823595       2.19248120        1 
H      -3.63007629      -1.27502254       0.38260342        1 
H      -2.59307030      -1.00847790       1.80798572        1 
H      -1.44120714      -1.69621595      -2.32605910        1 
H      -0.13851127      -1.24798850       1.63114199        1 
