32
Lattice="0.0 0.0 0.0 0.0 0.0 0.0 0.0 0.0 0.0" Properties=species:S:1:pos:R:3:Z:I:1 pbc="F F F"
C      -0.69551050       0.92050971       0.62935438        6 
C       0.69090260       0.16589855       0.74432593        6 
C      -1.83557416       0.22719851      -0.09014247        6 
C       0.79361084      -1.10809721      -0.08768723        6 
O      -2.39682925      -0.70189432       0.71775943        8 
O      -2.22672094       0.46473019      -1.20438979        8 
O       1.99930026      -1.69684681       0.09591248        8 
O      -0.02588758      -1.54197409      -0.85794970        8 
C       2.24652588      -2.88079796      -0.68425505        6 
C      -3.39329015      -1.53821898       0.10283008        6 
C      -0.29690680       2.28098570      -0.04224532        6 
C       0.21627196       1.97609532      -1.44265685        6 
C       1.40585232       1.38096289      -1.31630544        6 
C       1.69588258       1.25565734       0.17085997        6 
C       1.03972916       2.55617216       0.68328017        6 
C       0.99962109      -0.18273417       2.21557993        6 
H       1.52227473      -3.65888588      -0.43799921        1 
H      -2.94982440      -2.08855589      -0.72839006        1 
H       2.00407922       0.93726767      -2.10128176        1 
H       3.25309421      -3.19698620      -0.41923115        1 
H       2.18071434      -2.65753875      -1.75032607        1 
H      -3.72488905      -2.21967764       0.88369119        1 
H      -4.22768784      -0.93788317      -0.26278194        1 
H       2.72788226       1.05454326       0.45291348        1 
H      -1.07611053       3.03864321       0.02909122        1 
H       0.94810595       0.71124169       2.83912069        1 
H       0.26947166      -0.90054284       2.59965160        1 
H       1.99500391      -0.61645019       2.31380611        1 
H       1.54471291       3.44598273       0.30469367        1 
H       0.95010075       2.62072912       1.77024395        1 
H      -0.35568784       2.11876176      -2.34712791        1 
H      -1.04948499       1.10989318       1.64496948        1 
