32
Lattice="0.0 0.0 0.0 0.0 0.0 0.0 0.0 0.0 0.0" Properties=species:S:1:pos:R:3:Z:I:1 pbc="F F F"
C      -0.65593638       1.01078980       0.47564699        6 
C       0.60702752       0.11786814       0.79521196        6 
C      -1.86327417       0.36585067      -0.16526332        6 
C       0.70417105      -1.16412007      -0.03829733        6 
O      -2.41584207      -0.53285246       0.67458309        8 
O      -2.37027193       0.71260808      -1.20477554        8 
O       1.99747697      -1.53107889      -0.19983792        8 
O      -0.21083183      -1.85686582      -0.40891429        8 
C       2.21804018      -2.76830149      -0.89995915        6 
C      -3.51361667      -1.29782452       0.15141316        6 
C      -0.07466825       2.25862157      -0.24481844        6 
C       0.61194405       1.80181224      -1.52135110        6 
C       1.72648530       1.15217366      -1.16880564        6 
C       1.77173670       1.11528020       0.35536811        6 
C       1.15470580       2.49454976       0.66607487        6 
C       0.67967848      -0.29506828       2.27321785        6 
H       1.74557824      -3.59798799      -0.37170316        1 
H      -3.17204902      -1.90263955      -0.69005032        1 
H       2.41494568       0.62760101      -1.81647275        1 
H       3.29797969      -2.89669980      -0.92860508        1 
H       1.81135687      -2.71027311      -1.91101163        1 
H      -3.83876603      -1.93721255       0.96955349        1 
H      -4.32428451      -0.64278399      -0.17106820        1 
H       2.73220927       0.87246192       0.80502058        1 
H      -0.79680699       3.06618360      -0.35079126        1 
H       0.69949608       0.59087241       2.91198651        1 
H      -0.19087834      -0.89572167       2.54636746        1 
H       1.58375366      -0.87681069       2.46819533        1 
H       1.78563710       3.31483737       0.32071962        1 
H       0.89845894       2.64814423       1.71804265        1 
H       0.19766019       1.91627887      -2.51316098        1 
H      -1.03592551       1.34470887       1.44764936        1 
