32
Lattice="0.0 0.0 0.0 0.0 0.0 0.0 0.0 0.0 0.0" Properties=species:S:1:pos:R:3:Z:I:1 pbc="F F F"
C      -0.82463413      -0.39589900      -0.59650646        6 
C       0.75670765      -0.29453502      -0.66983930        6 
C      -1.71661019       0.63651887       0.06554957        6 
C       1.46099588       0.76709206       0.18233694        6 
O      -2.82404790       0.80113454      -0.71989185        8 
O      -1.58182182       1.20899936       1.11200276        8 
O       2.59827421       1.20088074      -0.42939083        8 
O       1.13778484       1.15583528       1.27167730        8 
C       3.37843587       2.14899340       0.31757245        6 
C      -3.83903087       1.66923279      -0.18899207        6 
C      -1.06933151      -1.82060272       0.06177680        6 
C      -0.53656937      -1.77437074       1.48130781        6 
C       0.79663969      -1.72749236       1.40482793        6 
C       1.17241227      -1.72546079      -0.06841943        6 
C       0.04926847      -2.62236118      -0.63213787        6 
C       1.18230090      -0.17900266      -2.14853243        6 
H       2.79888061       3.05324345       0.51059834        1 
H      -3.43970795       2.67126605      -0.02447506        1 
H       1.48952576      -1.56813904       2.21873053        1 
H       4.24052560       2.37197696      -0.30785387        1 
H       3.69412938       1.72122809       1.27059553        1 
H      -4.62755578       1.68845540      -0.93858339        1 
H      -4.22032858       1.28040465       0.75739172        1 
H       2.20159817      -1.98808800      -0.31154365        1 
H      -2.09357868      -2.16757905      -0.07151760        1 
H       0.69078974      -0.94361896      -2.75086362        1 
H       0.90296604       0.79631327      -2.55523705        1 
H       2.25972817      -0.29088728      -2.26176892        1 
H       0.11836417      -3.64506206      -0.25871847        1 
H      -0.02377386      -2.63639400      -1.72095972        1 
H      -1.14466687      -1.66079225       2.36766603        1 
H      -1.17942690      -0.45721868      -1.62460115        1 
