32
Lattice="0.0 0.0 0.0 0.0 0.0 0.0 0.0 0.0 0.0" Properties=species:S:1:pos:R:3:Z:I:1 pbc="F F F"
C       0.43640033       1.09779088       0.54609137        6 
C       0.68443573      -0.45054237       0.85994696        6 
C      -0.85868812       1.45185456      -0.15397718        6 
C      -0.46526074      -1.35875410       0.40207891        6 
O      -1.90774396       1.23244551       0.66595401        8 
O      -0.97190299       1.89579817      -1.27074482        8 
O      -0.40945099      -1.69215944      -0.90144330        8 
O      -1.36217110      -1.72702166       1.12236220        8 
C      -1.48698682      -2.50685454      -1.39590931        6 
C      -3.21566489       1.46002024       0.11400784        6 
C       1.71835894       1.52133763      -0.24501723        6 
C       1.69766052       0.82076230      -1.59464733        6 
C       1.91501752      -0.47715743      -1.37026893        6 
C       2.07747600      -0.67048937       0.13144099        6 
C       2.78402276       0.66645153       0.47534244        6 
C       0.81426647      -0.67931878       2.37861409        6 
H      -1.51131989      -3.46640838      -0.87710122        1 
H      -3.37101994       0.83514261      -0.76708913        1 
H       1.87683005      -1.27981975      -2.09158709        1 
H      -1.27896771      -2.64745082      -2.45457385        1 
H      -2.44357648      -2.00126930      -1.25745637        1 
H      -3.91277885       1.18448555       0.90204460        1 
H      -3.33896643       2.50827399      -0.16257461        1 
H       2.56645476      -1.59223421       0.44723369        1 
H       1.86673703       2.60027983      -0.26677413        1 
H       1.60726630      -0.06618607       2.80495518        1 
H      -0.12282250      -0.43834092       2.88043044        1 
H       1.04311759      -1.72733948       2.58838988        1 
H       3.76311584       0.74371506       0.00118705        1 
H       2.88241211       0.87606883       1.54163084        1 
H       1.43757435       1.29449923      -2.52938723        1 
H       0.40183126       1.61469181       1.50894080        1 
