32
Lattice="0.0 0.0 0.0 0.0 0.0 0.0 0.0 0.0 0.0" Properties=species:S:1:pos:R:3:Z:I:1 pbc="F F F"
C       0.10331981       0.78332780       0.87704194        6 
C       0.99876862      -0.48973930       0.50467095        6 
C      -1.39654969       0.75360346       0.64352205        6 
C       0.40174284      -1.57244531      -0.40314587        6 
O      -1.80870899       1.78999800      -0.12539451        8 
O      -2.15813415      -0.06232740       1.09794991        8 
O      -0.68001504      -2.14749538       0.13702577        8 
O       0.90222329      -1.95312264      -1.43683621        8 
C      -1.29225135      -3.21047111      -0.61207172        6 
C      -3.22151670       1.85348491      -0.38910713        6 
C       0.89194422       1.97564885       0.24117620        6 
C       0.87445736       1.79901851      -1.26990021        6 
C       1.65734043       0.75588474      -1.55898562        6 
C       2.20072280       0.21055174      -0.24412435        6 
C       2.33626702       1.52699800       0.55139930        6 
C       1.45631387      -1.22374335       1.78318421        6 
H      -1.54189675      -2.87426248      -1.61947553        1 
H      -3.78266131       1.93505666       0.54300337        1 
H       1.80745157       0.28703744      -2.51982882        1 
H      -2.19264127      -3.46700258      -0.05867127        1 
H      -0.62021925      -4.06825220      -0.67781523        1 
H      -3.36274886       2.74109307      -1.00215673        1 
H      -3.54825973       0.96094065      -0.92525388        1 
H       3.07628741      -0.43200217      -0.31981675        1 
H       0.57347391       2.94650576       0.61676078        1 
H       2.01237102      -0.55065607       2.43842494        1 
H       0.59431745      -1.60877211       2.32988493        1 
H       2.11002598      -2.06335481       1.52983422        1 
H       3.08246030       2.19378932       0.11765603        1 
H       2.53996817       1.39621898       1.61679117        1 
H       0.24968191       2.36434865      -1.94655860        1 
H       0.17186302       0.87839386       1.96688504        1 
