32
Lattice="0.0 0.0 0.0 0.0 0.0 0.0 0.0 0.0 0.0" Properties=species:S:1:pos:R:3:Z:I:1 pbc="F F F"
C      -0.77686921       0.85907434       0.42394220        6 
C       0.59026698       0.13810433       0.75910410        6 
C      -2.03961879       0.18788295      -0.08219205        6 
C       0.95612150      -1.12593184      -0.03784975        6 
O      -2.16457018      -1.07930609       0.32634580        8 
O      -2.94370099       0.81169114      -0.59315596        8 
O       2.30792527      -1.20102914      -0.18486017        8 
O       0.23724640      -2.02895656      -0.37471854        8 
C       2.80012759      -2.39656430      -0.81231278        6 
C      -3.40401765      -1.73610696       0.01045878        6 
C      -0.37182254       2.17449405      -0.29931027        6 
C       0.39094003       1.81280267      -1.56213794        6 
C       1.57940657       1.32652474      -1.18820666        6 
C       1.60523512       1.30346682       0.33863261        6 
C       0.79768662       2.58699629       0.62420352        6 
C       0.68413119      -0.24608740       2.24529914        6 
H       2.51432341      -3.27879806      -0.23697056        1 
H      -3.57858154      -1.72134929      -1.06599251        1 
H       2.34679964       0.90397188      -1.82091335        1 
H       3.88248769      -2.28775401      -0.83608361        1 
H       2.40172015      -2.48893507      -1.82430082        1 
H      -3.28412650      -2.75797645       0.36286757        1 
H      -4.23825809      -1.24598561       0.51631719        1 
H       2.58382398       1.20091617       0.80143391        1 
H      -1.20319188       2.86545939      -0.41479381        1 
H       0.54976662       0.63638501       2.87540628        1 
H      -0.09135131      -0.97252351       2.49936213        1 
H       1.65957106      -0.68239355       2.47266390        1 
H       1.31620360       3.48068118       0.27439549        1 
H       0.50723779       2.71967054       1.66982458        1 
H      -0.01211116       1.87531828      -2.56427402        1 
H      -1.14598140       1.18456330       1.40784098        1 
