32
Lattice="0.0 0.0 0.0 0.0 0.0 0.0 0.0 0.0 0.0" Properties=species:S:1:pos:R:3:Z:I:1 pbc="F F F"
C      -0.19180080      -0.95634843       0.84020278        6 
C      -1.11412100       0.31664711       0.58776858        6 
C       1.31992761      -0.81608308       0.87141162        6 
C      -0.46469171       1.61597075       0.10775552        6 
O       1.91865844      -1.00581799      -0.31848426        8 
O       1.94378347      -0.69985892       1.90267340        8 
O       0.68819600       1.43580858      -0.55541847        8 
O      -0.95046237       2.70879846       0.28703475        8 
C       1.31216468       2.61845712      -1.08581407        6 
C       3.34957193      -0.89706739      -0.32732301        6 
C      -0.74582245      -1.99642049      -0.21304971        6 
C      -0.49245553      -1.46472102      -1.61580070        6 
C      -1.30991524      -0.42569705      -1.80742468        6 
C      -2.10753155      -0.23296464      -0.53100919        6 
C      -2.25838269      -1.70621821      -0.08892187        6 
C      -1.88926545       0.66608119       1.87495762        6 
H       0.64758175       3.11271813      -1.79611851        1 
H       3.79953645      -1.64056619       0.33236107        1 
H      -1.32881212       0.24560781      -2.65577931        1 
H       2.21286230       2.26763477      -1.58498133        1 
H       1.55924666       3.31340292      -0.28237530        1 
H       3.64726168      -1.06979760      -1.35977229        1 
H       3.65548590       0.09915075      -0.00241303        1 
H      -3.01087514       0.37137415      -0.60338311        1 
H      -0.41235616      -3.01542551      -0.01849320        1 
H      -2.44446915      -0.19806089       2.24172141        1 
H      -1.20088450       0.98207250       2.66282109        1 
H      -2.58811960       1.48163039       1.69061952        1 
H      -2.85331510      -2.28488676      -0.79709106        1 
H      -2.65593067      -1.84365163       0.91805194        1 
H       0.28637670      -1.81686471      -2.27542254        1 
H      -0.43304021      -1.31708932       1.83979071        1 
