32
Lattice="0.0 0.0 0.0 0.0 0.0 0.0 0.0 0.0 0.0" Properties=species:S:1:pos:R:3:Z:I:1 pbc="F F F"
C       0.55284072      -0.75362911       0.65317093        6 
C      -0.98304593      -0.38632438       0.70913573        6 
C       1.55831639       0.35365182       0.42222021        6 
C      -1.36336014       1.05791634       0.33262738        6 
O       2.79768038      -0.17374265       0.28425082        8 
O       1.34419843       1.53936256       0.37844257        8 
O      -1.09399293       1.37437567      -0.94416180        8 
O      -1.93549242       1.81159335       1.08412252        8 
C      -1.33858822       2.73887371      -1.31968517        6 
C       3.86476190       0.77084308       0.07973800        6 
C       0.63106901      -1.96827988      -0.34902383        6 
C       0.28003641      -1.45153727      -1.73092542        6 
C      -1.02164254      -1.15079195      -1.72171676        6 
C      -1.56246390      -1.45446404      -0.33028251        6 
C      -0.68669934      -2.68689111       0.01025749        6 
C      -1.54570740      -0.63688597       2.11906397        6 
H      -2.38586799       3.00256212      -1.16426538        1 
H       3.94076051       1.45200603       0.92876032        1 
H      -1.58764692      -0.67641193      -2.50964327        1 
H      -1.07908723       2.79818899      -2.37493559        1 
H      -0.70351861       3.40233618      -0.73096911        1 
H       4.76792701       0.17196150      -0.01396508        1 
H       3.69135101       1.35024390      -0.82850242        1 
H      -2.64351767      -1.56676079      -0.24823115        1 
H       1.55684945      -2.53199609      -0.25730798        1 
H      -1.32713851      -1.65011796       2.45738977        1 
H      -1.11282348       0.06579861       2.83304009        1 
H      -2.62713411      -0.49161565       2.13551147        1 
H      -0.89109056      -3.52865762      -0.65319710        1 
H      -0.74666059      -3.02072260       1.04704587        1 
H       0.99151986      -1.26678587      -2.52465580        1 
H       0.82547011      -1.14413700       1.64091917        1 
