32
Lattice="0.0 0.0 0.0 0.0 0.0 0.0 0.0 0.0 0.0" Properties=species:S:1:pos:R:3:Z:I:1 pbc="F F F"
C       0.85353977      -0.70297059       0.78496809        6 
C      -0.71044016      -0.55374167       0.62959015        6 
C       1.81972693       0.44827551       0.56587503        6 
C      -1.22951549       0.84122627       0.30406254        6 
O       1.66107489       1.07906511      -0.60796757        8 
O       2.75149950       0.66063706       1.30930659        8 
O      -2.48069101       0.76398630      -0.21002808        8 
O      -0.65997410       1.88713628       0.48337325        8 
C      -3.11436424       2.01599297      -0.52573631        6 
C       2.54533749       2.18015104      -0.86512194        6 
C       1.16473749      -1.87071639      -0.25271984        6 
C       0.86100864      -1.35163949      -1.65141421        6 
C      -0.46545509      -1.22960644      -1.75804829        6 
C      -1.06963312      -1.66065430      -0.43375695        6 
C      -0.07018847      -2.77189016      -0.03369676        6 
C      -1.38836382      -0.87143008       1.99483392        6 
H      -3.20814110       2.63502004       0.36795605        1 
H       3.58715146       1.85821053      -0.82676049        1 
H      -1.02349257      -0.79681994      -2.57743769        1 
H      -4.09621921       1.75383510      -0.91437860        1 
H      -2.53641363       2.55645377      -1.27711739        1 
H       2.28590677       2.53163889      -1.86174025        1 
H       2.38078897       2.96912232      -0.12965059        1 
H      -2.12848011      -1.91018326      -0.44265383        1 
H       2.14836916      -2.31343727      -0.10185263        1 
H      -1.08338589      -1.84982090       2.36823558        1 
H      -1.10621740      -0.12683388       2.74392551        1 
H      -2.47560624      -0.86610709       1.89265102        1 
H      -0.09607386      -3.61429030      -0.72636118        1 
H      -0.17768780      -3.13780062       0.98898076        1 
H       1.60623676      -1.03904195      -2.36864698        1 
H       1.07874962      -1.06352635       1.78729428        1 
