32
Lattice="0.0 0.0 0.0 0.0 0.0 0.0 0.0 0.0 0.0" Properties=species:S:1:pos:R:3:Z:I:1 pbc="F F F"
C       0.68324550      -0.71289623      -0.81514947        6 
C       0.49746329       0.84827046      -0.54802262        6 
C      -0.33016764      -1.66424442      -0.21190336        6 
C      -0.68538257       1.16416341       0.37735524        6 
O      -1.58961450      -1.32321675      -0.56504955        8 
O      -0.07251932      -2.63375952       0.45689974        8 
O      -1.76107599       1.61337088      -0.30174422        8 
O      -0.67985042       1.06997012       1.58148933        8 
C      -2.93544562       1.87310896       0.48269193        6 
C      -2.64301905      -2.15493359      -0.04504442        6 
C       2.14366334      -0.99914189      -0.31548198        6 
C       2.14341315      -0.84713818       1.19810754        6 
C       1.98364868       0.45134193       1.46627380        6 
C       1.88567688       1.19039792       0.13749272        6 
C       2.84198914       0.31678921      -0.71434008        6 
C       0.33498984       1.60652571      -1.88114793        6 
H      -3.27267663       0.95888455       0.97449239        1 
H      -2.65145460      -2.11617642       1.04543776        1 
H       1.83584976       0.90726149       2.43322952        1 
H      -3.68405827       2.22511934      -0.22409965        1 
H      -2.73387706       2.63170187       1.24028958        1 
H      -3.56417805      -1.74282844      -0.45171012        1 
H      -2.50967097      -3.18858455      -0.36713656        1 
H       2.07615834       2.26347641       0.16755460        1 
H       2.55170724      -1.92927692      -0.70796604        1 
H       1.18110317       1.41581946      -2.54147367        1 
H      -0.57627991       1.29761850      -2.39264154        1 
H       0.27504563       2.68417086      -1.71080224        1 
H       3.86972038       0.36391279      -0.35306251        1 
H       2.82487098       0.52759890      -1.78503518        1 
H       2.14140500      -1.67173245       1.89535594        1 
H       0.61859401      -0.86706151      -1.89736565        1 
