32
Lattice="0.0 0.0 0.0 0.0 0.0 0.0 0.0 0.0 0.0" Properties=species:S:1:pos:R:3:Z:I:1 pbc="F F F"
C       0.15462972      -0.81300012       0.67457207        6 
C      -0.99238442       0.27795154       0.65696174        6 
C       1.50322542      -0.65995523      -0.00513886        6 
C      -0.76740079       1.67559155       0.07508286        6 
O       2.46519140      -1.16903771       0.81335412        8 
O       1.74929869      -0.22677308      -1.09997908        8 
O       0.50046762       1.95371972      -0.23576873        8 
O      -1.64917060       2.50588293       0.05198263        8 
C       0.76663692       3.27378495      -0.74002907        6 
C       3.79794403      -1.18286636       0.27453122        6 
C      -0.56796791      -2.03572122      -0.06781668        6 
C      -0.77163419      -1.60525281      -1.51462199        6 
C      -1.72739414      -0.67086636      -1.52252942        6 
C      -2.17339002      -0.46257231      -0.08603899        6 
C      -2.00854932      -1.89767622       0.45947879        6 
C      -1.38965613       0.58048806       2.13150582        6 
H       0.15414671       3.47383396      -1.62011099        1 
H       4.12007112      -0.17034871       0.02568480        1 
H      -2.05450412      -0.07242796      -2.36232332        1 
H       1.82213878       3.27093018      -1.00182820        1 
H       0.55511992       4.02444537       0.02335383        1 
H       4.42469385      -1.60312688       1.05824409        1 
H       3.84234501      -1.80053808      -0.62443063        1 
H      -3.13008906       0.03451651       0.06020347        1 
H      -0.05951901      -2.98592995       0.09273327        1 
H      -1.60243437      -0.33791083       2.67891063        1 
H      -0.57526289       1.09527975       2.64950654        1 
H      -2.27156439       1.22063798       2.15726781        1 
H      -2.69091464      -2.59851239      -0.02403708        1 
H      -2.09961333      -1.99208341       1.54248180        1 
H      -0.15662958      -1.91914864      -2.34565079        1 
H       0.35065488      -1.09752927       1.70591862        1 
