32
Lattice="0.0 0.0 0.0 0.0 0.0 0.0 0.0 0.0 0.0" Properties=species:S:1:pos:R:3:Z:I:1 pbc="F F F"
C       0.55718219      -0.82019282      -0.73018998        6 
C       0.59082255       0.77276187      -0.59403662        6 
C      -0.58560124      -1.52428124      -0.03247633        6 
C      -0.46756073       1.30407389       0.38209058        6 
O      -1.70159429      -1.47096573      -0.79880364        8 
O      -0.55292171      -2.06325425       1.04514717        8 
O      -1.60783706       1.64360675      -0.26270874        8 
O      -0.36131186       1.38849998       1.58001327        8 
C      -2.69903717       2.07027920       0.56985771        6 
C      -2.88574998      -2.06047147      -0.23312017        6 
C       1.97906646      -1.25820050      -0.24216403        6 
C       2.10648935      -0.94196691       1.24000002        6 
C       2.16135816       0.38677663       1.36031663        6 
C       2.06412708       0.98073633      -0.03873669        6 
C       2.82376861      -0.10961468      -0.83458489        6 
C       0.41383590       1.44061584      -1.97090232        6 
H      -2.99054343       1.27246655       1.25551973        1 
H      -3.14009687      -1.57693622       0.71157095        1 
H       2.15252679       0.96250052       2.27274867        1 
H      -3.51172145       2.30230043      -0.11524135        1 
H      -2.42008916       2.95148765       1.14933572        1 
H      -3.67012499      -1.90029236      -0.96967930        1 
H      -2.73666545      -3.12712393      -0.05737017        1 
H       2.40137432       2.01164425      -0.15092767        1 
H       2.23164867      -2.27455184      -0.54457123        1 
H       1.20827850       1.13346916      -2.65211800        1 
H      -0.54434896       1.17203391      -2.41462449        1 
H       0.45022077       2.52928405      -1.87970888        1 
H       3.87253358      -0.17391595      -0.54346803        1 
H       2.75267094      -0.01831451      -1.92056806        1 
H       2.03666050      -1.67248439       2.03174296        1 
H       0.44807507      -1.04554951      -1.79363146        1 
