32
Lattice="0.0 0.0 0.0 0.0 0.0 0.0 0.0 0.0 0.0" Properties=species:S:1:pos:R:3:Z:I:1 pbc="F F F"
C       0.62767359      -0.78691724       0.54135751        6 
C      -0.86748819      -0.35434383       0.83824077        6 
C       1.59720997       0.25458458       0.03280950        6 
C      -1.18330286       1.12110285       0.52205077        6 
O       2.85006108      -0.03961868       0.45583031        8 
O       1.35292480       1.19182762      -0.68666996        8 
O      -1.50579992       1.35229767      -0.75681311        8 
O      -1.23652308       1.97909856       1.37327327        8 
C      -1.69115439       2.72733249      -1.12815281        6 
C       3.89467278       0.83057053      -0.01753725        6 
C       0.47902983      -2.00733985      -0.45320973        6 
C      -0.08395828      -1.49099137      -1.76358541        6 
C      -1.35223831      -1.13933377      -1.53723962        6 
C      -1.65627514      -1.40242605      -0.06857988        6 
C      -0.78650062      -2.66854783       0.13760272        6 
C      -1.19446922      -0.55849683       2.32841536        6 
H      -2.48540360       3.18462679      -0.53654605        1 
H       3.71040911       1.85674120       0.30372389        1 
H      -2.02848921      -0.65575460      -2.22509277        1 
H      -1.95766293       2.70734924      -2.18306128        1 
H      -0.75974648       3.27572242      -0.98119867        1 
H       4.81223957       0.44875616       0.42440924        1 
H       3.95172114       0.80189997      -1.10703491        1 
H      -2.71115421      -1.47108721       0.19646057        1 
H       1.38437684      -2.61030684      -0.50969098        1 
H      -0.98738126      -1.58131094       2.64339985        1 
H      -0.60535842       0.12119007       2.94465240        1 
H      -2.24861953      -0.34707137       2.52244482        1 
H      -1.13141472      -3.50510940      -0.47147473        1 
H      -0.68046222      -2.99317925       1.17389839        1 
H       0.48751220      -1.33520114      -2.66845179        1 
H       1.05794803      -1.17406094       1.46662992        1 
