32
Lattice="0.0 0.0 0.0 0.0 0.0 0.0 0.0 0.0 0.0" Properties=species:S:1:pos:R:3:Z:I:1 pbc="F F F"
C      -0.71527143       0.93435827       0.58170490        6 
C       0.65583818       0.17949426       0.76599233        6 
C      -1.87051699       0.19704001      -0.05816224        6 
C       0.80432965      -1.05168145      -0.12343180        6 
O      -2.23609082      -0.85779202       0.70397715        8 
O      -2.47200804       0.55579551      -1.03961442        8 
O       2.02362225      -1.61463719       0.04533353        8 
O      -0.00293520      -1.48182401      -0.90910513        8 
C       2.30451081      -2.76370995      -0.77418189        6 
C      -3.26836667      -1.69632117       0.15748970        6 
C      -0.31721267       2.26557961      -0.12714364        6 
C       0.28054577       1.92088194      -1.48245254        6 
C       1.47696915       1.36467556      -1.26708547        6 
C       1.67917176       1.28818969       0.23980400        6 
C       0.96909065       2.58924491       0.66897273        6 
C       0.90638099      -0.20631248       2.23308781        6 
H       1.59462931      -3.56524649      -0.56425421        1 
H      -2.93294094      -2.12646575      -0.78757117        1 
H       2.13100202       0.91145414      -2.00062619        1 
H       3.31498315      -3.06802825      -0.51004458        1 
H       2.24503331      -2.50287582      -1.83207964        1 
H      -3.43187160      -2.47774392       0.89691321        1 
H      -4.18392394      -1.12561835      -0.00571257        1 
H       2.69550792       1.11626868       0.58932444        1 
H      -1.11505942       3.00615029      -0.13132353        1 
H       0.87443494       0.68097911       2.86863965        1 
H       0.13568200      -0.89876983       2.58204933        1 
H       1.88073553      -0.68125512       2.35175225        1 
H       1.48166591       3.47761474       0.29728138        1 
H       0.81041967       2.68207966       1.74652924        1 
H      -0.24325163       2.01663909      -2.42262317        1 
H      -1.07300185       1.18092941       1.58650805        1 
