32
Lattice="0.0 0.0 0.0 0.0 0.0 0.0 0.0 0.0 0.0" Properties=species:S:1:pos:R:3:Z:I:1 pbc="F F F"
C      -0.79475297       0.02832569      -0.98037576        6 
C       0.16946845      -1.11296633      -0.40893872        6 
C      -0.29394826       1.44233661      -0.75641134        6 
C       1.29183008      -0.51373510       0.45096009        6 
O      -1.02347086       2.14380039       0.12488166        8 
O       0.64795510       1.90832608      -1.35770094        8 
O       2.49690504      -0.61292774      -0.14068589        8 
O       1.14401909       0.00212793       1.53406777        8 
C       3.59031486       0.01851687       0.54846418        6 
C      -0.57404611       3.48442545       0.39431590        6 
C      -2.20004048      -0.36020557      -0.38838528        6 
C      -2.16605651      -0.19609778       1.12353081        6 
C      -1.36663709      -1.14692166       1.61206898        6 
C      -0.85981738      -1.97115067       0.43611846        6 
C      -2.10657028      -1.89989592      -0.48207384        6 
C       0.76073272      -1.94667359      -1.56154391        6 
H       3.41561671       1.09309449       0.61901329        1 
H      -0.56569260       4.07590296      -0.52231256        1 
H      -1.03395239      -1.26238341       2.63277671        1 
H       4.46986049      -0.18618691      -0.05789647        1 
H       3.70444968      -0.39723785       1.55044432        1 
H      -1.28720212       3.88944421       1.10874878        1 
H       0.42874295       3.46423780       0.82254500        1 
H      -0.47036650      -2.96132923       0.67440527        1 
H      -3.02642227       0.12204772      -0.91003465        1 
H      -0.03147112      -2.39927546      -2.15833996        1 
H       1.37006163      -1.32563249      -2.21818850        1 
H       1.39249161      -2.75004128      -1.17606636        1 
H      -2.97037497      -2.39562862      -0.03753697        1 
H      -1.95499576      -2.27860239      -1.49464128        1 
H      -2.61527259       0.62414585       1.66281534        1 
H      -0.81434596      -0.08146061      -2.06717660        1 
