32
Lattice="0.0 0.0 0.0 0.0 0.0 0.0 0.0 0.0 0.0" Properties=species:S:1:pos:R:3:Z:I:1 pbc="F F F"
C      -0.78428442      -0.37045727      -0.64079540        6 
C       0.77769143      -0.59620183      -0.59476853        6 
C      -1.36026534       0.93915662      -0.15369558        6 
C       1.55762880       0.38514960       0.30303305        6 
O      -2.65952374       1.01956306      -0.53832585        8 
O      -0.81521393       1.80161115       0.48651288        8 
O       2.28904383       1.25227025      -0.43280650        8 
O       1.52425317       0.43266363       1.50531661        8 
C       2.95311868       2.28779036       0.31238684        6 
C      -3.36746861       2.20372453      -0.13009007        6 
C      -1.39452571      -1.66935367       0.01882414        6 
C      -0.97590935      -1.71885347       1.47541437        6 
C       0.33873097      -1.95658289       1.50361554        6 
C       0.82239309      -2.05492130       0.05996504        6 
C      -0.42540264      -2.71257130      -0.57825195        6 
C       1.35924148      -0.61666961      -2.01927367        6 
H       2.21817962       2.88381059       0.85500914        1 
H      -2.90454209       3.09310842      -0.56110295        1 
H       0.98185343      -1.96464235       2.36994430        1 
H       3.47149476       2.89155450      -0.42973943        1 
H       3.66191578       1.85679115       1.02110865        1 
H      -4.38045200       2.08016258      -0.50713576        1 
H      -3.36991118       2.29338144       0.95725625        1 
H       1.78273659      -2.54782245      -0.09197004        1 
H      -2.45543283      -1.78337647      -0.19675683        1 
H       0.86385539      -1.37641474      -2.62550721        1 
H       1.22895355       0.34858683      -2.51085905        1 
H       2.42836596      -0.83810319      -2.00529559        1 
H      -0.60485195      -3.71467554      -0.18717251        1 
H      -0.42147310      -2.74400795      -1.66976540        1 
H      -1.61774815      -1.48576738       2.31431141        1 
H      -1.07709764      -0.41003677      -1.69520903        1 
