32
Lattice="0.0 0.0 0.0 0.0 0.0 0.0 0.0 0.0 0.0" Properties=species:S:1:pos:R:3:Z:I:1 pbc="F F F"
C      -0.17692506       0.85894347       0.84244343        6 
C       1.17163628       0.05571545       0.59842488        6 
C      -1.46630620       0.08181585       0.66398210        6 
C       0.97133845      -1.41001429       0.18709080        6 
O      -2.43208368       0.83017513       0.08996554        8 
O      -1.65180184      -1.04777180       1.04743648        8 
O       0.43146562      -1.54842951      -1.03990431        8 
O       1.24286644      -2.35338470       0.88744204        8 
C       0.07995808      -2.89142688      -1.41917432        6 
C      -3.71179029       0.19099172      -0.07333290        6 
C      -0.01831200       2.13320340      -0.06757190        6 
C      -0.09683025       1.67036999      -1.51395947        6 
C       1.01475872       0.97566712      -1.76889323        6 
C       1.85961889       0.96903933      -0.50288534        6 
C       1.50237366       2.37603876       0.04269379        6 
C       2.01375900       0.02316585       1.88898112        6 
H       0.96097571      -3.53462068      -1.42194632        1 
H      -4.11207898      -0.11761371       0.89342014        1 
H       1.24828895       0.42042521      -2.66559835        1 
H      -0.33816825      -2.80837168      -2.42055952        1 
H      -0.65842837      -3.29140135      -0.72274588        1 
H      -4.35275626       0.93983542      -0.53354624        1 
H      -3.61869471      -0.68385173      -0.71869318        1 
H       2.91579567       0.73281300      -0.63278898        1 
H      -0.68191451       2.94752159       0.21635957        1 
H       2.16459925       1.02434983       2.29181629        1 
H       1.51719615      -0.58293519       2.64730372        1 
H       2.99207589      -0.42448569       1.70046254        1 
H       1.84005304       3.17080789      -0.62364170        1 
H       1.85551196       2.57568071       1.05460202        1 
H      -0.95812591       1.79505254      -2.15479420        1 
H      -0.19120258       1.16518736       1.89402774        1 
