32
Lattice="0.0 0.0 0.0 0.0 0.0 0.0 0.0 0.0 0.0" Properties=species:S:1:pos:R:3:Z:I:1 pbc="F F F"
C      -0.35225030      -0.95018844       0.59716284        6 
C      -0.76353491       0.58334898       0.70926968        6 
C       0.94838076      -1.24929638      -0.11405017        6 
C       0.07731392       1.53724708      -0.13870345        6 
O       1.94047438      -1.46648639       0.77797458        8 
O       1.10222048      -1.34623554      -1.30792612        8 
O       1.38895939       1.43704228       0.16926769        8 
O      -0.34563591       2.31128199      -0.96037214        8 
C       2.28677326       2.23805405      -0.62016357        6 
C       3.23793691      -1.72745050       0.21863156        6 
C      -1.61789481      -1.61304945      -0.04506356        6 
C      -1.81274822      -1.04538456      -1.44185825        6 
C      -2.20687669       0.22384834      -1.30840377        6 
C      -2.25609923       0.53473988       0.18069813        6 
C      -2.71605237      -0.83909855       0.72020520        6 
C      -0.67687146       1.07916526       2.16605968        6 
H       2.20204871       1.96595361      -1.67315514        1 
H       3.56860039      -0.88022840      -0.38456715        1 
H      -2.34385685       0.95497781      -2.09072296        1 
H       3.28247835       2.01286017      -0.24394543        1 
H       2.06199832       3.29849900      -0.49898888        1 
H       3.89935688      -1.87105709       1.07039427        1 
H       3.21469269      -2.62254476      -0.40494180        1 
H      -2.83222119       1.41261594       0.46953174        1 
H      -1.61606781      -2.69976106       0.03928447        1 
H      -1.32835474       0.48889348       2.81295371        1 
H       0.34494814       0.99957972       2.54061137        1 
H      -0.98998216       2.12502562       2.23495157        1 
H      -3.72006529      -1.09923066       0.38237942        1 
H      -2.65714083      -0.94590155       1.80624707        1 
H      -1.56516670      -1.56380267      -2.35660532        1 
H      -0.23667750      -1.32751958       1.61468580        1 
