32
Lattice="0.0 0.0 0.0 0.0 0.0 0.0 0.0 0.0 0.0" Properties=species:S:1:pos:R:3:Z:I:1 pbc="F F F"
C       1.00783986      -0.02872077      -0.80779351        6 
C      -0.23891070       0.91763098      -0.52787131        6 
C       1.02383638      -1.54027753      -0.69206588        6 
C      -1.44078682       0.34966050       0.24280769        6 
O       0.29619618      -2.05182872       0.30372836        8 
O       1.70887419      -2.21677834      -1.42942104        8 
O      -2.60974186       0.63520894      -0.38909691        8 
O      -1.41661430      -0.25755045       1.28118145        8 
C      -3.80341887       0.17029199       0.26097007        6 
C       0.34433794      -3.47951238       0.46838862        6 
C       2.17633231       0.62879929       0.03823120        6 
C       1.82438890       0.51557474       1.50917523        6 
C       0.80390973       1.34688859       1.73942709        6 
C       0.44893815       2.01654191       0.41990748        6 
C       1.85692864       2.11762740      -0.20706646        6 
C      -0.69142864       1.55529546      -1.85659477        6 
H      -3.78851950      -0.91665683       0.35621926        1 
H       1.36081726      -3.80413602       0.69647099        1 
H       0.23401955       1.44108611       2.65213433        1 
H      -4.62374090       0.48691037      -0.38030656        1 
H      -3.89932044       0.61368410       1.25346834        1 
H      -0.32340372      -3.69135620       1.30052407        1 
H       0.00430158      -3.98152420      -0.43878553        1 
H      -0.14211822       2.93052701       0.48110559        1 
H       3.15572767       0.26231843      -0.26617939        1 
H       0.15543748       2.00514259      -2.37578120        1 
H      -1.12897038       0.80519767      -2.51870115        1 
H      -1.44120484       2.32837591      -1.68930624        1 
H       2.50941030       2.77993152       0.36313378        1 
H       1.87296783       2.41005298      -1.25848461        1 
H       2.24964972      -0.20208955       2.19724622        1 
H       1.27116794       0.12141171      -1.85559091        1 
