32
Lattice="0.0 0.0 0.0 0.0 0.0 0.0 0.0 0.0 0.0" Properties=species:S:1:pos:R:3:Z:I:1 pbc="F F F"
C      -0.66137965       0.60499224      -0.92727325        6 
C      -0.65484725      -0.90736111      -0.46043558        6 
C       0.53666465       1.49892968      -0.69840598        6 
C       0.59804504      -1.35656958       0.28875204        6 
O       1.14788432       1.28691770       0.48299735        8 
O       0.86071255       2.38055901      -1.46012857        8 
O       1.68364470      -1.30518900      -0.51500921        8 
O       0.63446606      -1.77828279       1.41761590        8 
C       2.93117663      -1.67910146       0.09076864        6 
C       2.26618389       2.13701853       0.78499577        6 
C      -1.94510760       1.18537604      -0.19160044        6 
C      -1.68065504       1.16049416       1.30572199        6 
C      -1.68007769      -0.11837453       1.69222624        6 
C      -1.93901815      -0.97027674       0.45847092        6 
C      -2.88949823      -0.02823608      -0.31840852        6 
C      -0.79694213      -1.84941340      -1.67901807        6 
H       3.16563901      -1.00346058       0.91543114        1 
H       1.96081671       3.18435169       0.79243340        1 
H      -1.42289387      -0.51390180       2.66319867        1 
H       3.67581109      -1.59496295      -0.69783285        1 
H       2.88366503      -2.70131170       0.46893573        1 
H       2.60477970       1.82814816       1.77161538        1 
H       3.05603364       2.00096328       0.04412832        1 
H      -2.27518444      -1.99001528       0.64191052        1 
H      -2.27445675       2.13180540      -0.61825664        1 
H      -1.71842511      -1.64695660      -2.22683480        1 
H       0.04328367      -1.72445813      -2.36246269        1 
H      -0.82259117      -2.89361839      -1.35454308        1 
H      -3.83465382       0.12618274       0.20372935        1 
H      -3.08955677      -0.32657710      -1.34961160        1 
H      -1.42459445       2.02590219       1.90159051        1 
H      -0.83754021       0.64644439      -2.00293954        1 
