32
Lattice="0.0 0.0 0.0 0.0 0.0 0.0 0.0 0.0 0.0" Properties=species:S:1:pos:R:3:Z:I:1 pbc="F F F"
C      -0.17192669       1.13797017       0.40178589        6 
C       0.77721426      -0.03013475       0.93293101        6 
C      -1.42065868       0.67140288      -0.31006108        6 
C       0.24030493      -1.41272098       0.53992915        6 
O      -2.52143115       0.95990740       0.41744363        8 
O      -1.46478544       0.11438376      -1.38152712        8 
O       0.79605622      -1.93365202      -0.56097610        8 
O      -0.58088985      -2.00747725       1.20157549        8 
C       0.24021059      -3.17714614      -1.02664657        6 
C      -3.77509188       0.50601491      -0.12671458        6 
C       0.78970000       2.02240088      -0.46764640        6 
C       1.24311710       1.22634888      -1.67781510        6 
C       2.06981723       0.27410968      -1.24088832        6 
C       2.15984214       0.39569618       0.27373740        6 
C       2.06488445       1.93756055       0.40158786        6 
C       0.85742930      -0.01554376       2.46940837        6 
H       0.31841405      -3.94640305      -0.25738142        1 
H      -3.77892683      -0.58226037      -0.20353192        1 
H       2.51190315      -0.52222407      -1.81969574        1 
H       0.82739190      -3.44432359      -1.90260090        1 
H      -0.80648560      -3.03398364      -1.29769397        1 
H      -4.53400154       0.84216551       0.57633997        1 
H      -3.94369360       0.93948411      -1.11351173        1 
H       3.01102354      -0.09563923       0.74517693        1 
H       0.38226925       3.01421850      -0.66409329        1 
H       1.19984517       0.95206363       2.83651565        1 
H      -0.11938148      -0.23003185       2.90333837        1 
H       1.55443104      -0.78082703       2.82218452        1 
H       2.91412597       2.44141696      -0.06138564        1 
H       1.93348615       2.30556006       1.42088157        1 
H       0.86639705       1.35744931      -2.68182480        1 
H      -0.49908265       1.71645182       1.26596520        1 
