32
Lattice="0.0 0.0 0.0 0.0 0.0 0.0 0.0 0.0 0.0" Properties=species:S:1:pos:R:3:Z:I:1 pbc="F F F"
C      -0.53495767      -1.09752646       0.64357652        6 
C      -0.84699565       0.45988322       0.77100194        6 
C       0.92050274      -1.48493790       0.50558451        6 
C       0.39385136       1.32473806       0.51314928        6 
O       1.46175503      -1.07310266      -0.66111735        8 
O       1.54577274      -2.07491931       1.35289718        8 
O       0.36778416       1.99930847      -0.64839967        8 
O       1.28410054       1.45307514       1.32113037        8 
C       1.52517460       2.80334839      -0.93801347        6 
C       2.86888315      -1.32437997      -0.82628038        6 
C      -1.52388783      -1.57578499      -0.48095492        6 
C      -1.16951253      -0.90699919      -1.79659934        6 
C      -1.48196986       0.38599300      -1.68641903        6 
C      -2.02572512       0.61217348      -0.28150590        6 
C      -2.76256261      -0.73724258      -0.08382858        6 
C      -1.31516365       0.80308296       2.19813909        6 
H       1.66105643       3.57113757      -0.17531064        1 
H       3.07880124      -2.39305298      -0.76245481        1 
H      -1.29419692       1.16878197      -2.40511406        1 
H       1.32751717       3.25437023      -1.90814285        1 
H       2.41772381       2.17743711      -0.98065839        1 
H       3.11654354      -0.94445772      -1.81541552        1 
H       3.43565150      -0.79893816      -0.05614101        1 
H      -2.60425924       1.52420527      -0.13435626        1 
H      -1.64084115      -2.65925440      -0.50307904        1 
H      -2.19315250       0.21604412       2.47044283        1 
H      -0.52078719       0.59881307       2.91674761        1 
H      -1.57680605       1.86242002       2.27265193        1 
H      -3.58797621      -0.85961838      -0.78604098        1 
H      -3.11753812      -0.92306738       0.93192391        1 
H      -0.66797129      -1.39374029      -2.62105614        1 
H      -0.83981239      -1.56775061       1.57928872        1 
