32
Lattice="0.0 0.0 0.0 0.0 0.0 0.0 0.0 0.0 0.0" Properties=species:S:1:pos:R:3:Z:I:1 pbc="F F F"
C       0.82181872      -0.67388172      -0.71572066        6 
C       0.36836305       0.83599009      -0.57636574        6 
C      -0.08422396      -1.80699727      -0.28873152        6 
C      -0.84995474       1.04357136       0.33676274        6 
O      -1.38814047      -1.46548203      -0.31985552        8 
O       0.29894054      -2.93652745      -0.09902026        8 
O      -1.86973379       1.65377444      -0.30698861        8 
O      -0.91931194       0.74110254       1.50294150        8 
C      -3.06110188       1.86162508       0.46832138        6 
C      -2.33053267      -2.50053329       0.01331792        6 
C       2.26181394      -0.71544406      -0.09919845        6 
C       2.14506388      -0.43083772       1.38785532        6 
C       1.79713189       0.85203156       1.52219730        6 
C       1.67062285       1.44642548       0.12403722        6 
C       2.78789455       0.64970710      -0.59384954        6 
C       0.13660236       1.46276813      -1.96181803        6 
H      -3.45036754       0.90774629       0.82825516        1 
H      -2.18040164      -2.82793557       1.04294432        1 
H       1.52659663       1.36332322       2.43399938        1 
H      -3.76915064       2.33506746      -0.20878289        1 
H      -2.85670944       2.50730204       1.32389231        1 
H      -3.31213108      -2.04614831      -0.10266846        1 
H      -2.21826434      -3.35257600      -0.65853165        1 
H       1.70254635       2.53398837       0.05507376        1 
H       2.81469217      -1.60789777      -0.38471063        1 
H       1.02441198       1.35058954      -2.58542400        1 
H      -0.70071365       0.98048289      -2.46969538        1 
H      -0.09236600       2.52658544      -1.88159909        1 
H       3.77586219       0.88108382      -0.19488487        1 
H       2.80073974       0.75594242      -1.68031048        1 
H       2.21152370      -1.17974598       2.16499908        1 
H       0.92597920      -0.86326730      -1.79239471        1 
