32
Lattice="0.0 0.0 0.0 0.0 0.0 0.0 0.0 0.0 0.0" Properties=species:S:1:pos:R:3:Z:I:1 pbc="F F F"
C       0.59982207      -0.77072591      -0.76183902        6 
C       0.55568273       0.81581252      -0.56803023        6 
C      -0.46714140      -1.64979439      -0.13645339        6 
C      -0.55081571       1.34109907       0.35671178        6 
O      -1.70590809      -1.29332442      -0.53054095        8 
O      -0.25001098      -2.61502222       0.55585927        8 
O      -1.71928704       1.49980966      -0.29550196        8 
O      -0.41255005       1.65623146       1.51461628        8 
C      -2.82891862       1.95473771       0.49390321        6 
C      -2.78721568      -2.11042293      -0.04721004        6 
C       2.03427436      -1.15415011      -0.26629273        6 
C       2.07149280      -0.91449112       1.23634487        6 
C       2.04566907       0.40716534       1.42939765        6 
C       1.98679054       1.07126511       0.05803814        6 
C       2.83952278       0.06674384      -0.75452360        6 
C       0.40827415       1.51893816      -1.93522049        6 
H      -3.02991667       1.25657662       1.30870330        1 
H      -2.81466378      -2.10323872       1.04354433        1 
H       1.96484608       0.93419418       2.36741208        1 
H      -3.67321235       1.99576161      -0.19111518        1 
H      -2.62641194       2.94137732       0.91378686        1 
H      -3.69106757      -1.66498521      -0.45738511        1 
H      -2.67414971      -3.13875705      -0.39434711        1 
H       2.27189217       2.12262397       0.02034125        1 
H       2.35184245      -2.13876612      -0.60578034        1 
H       1.22355541       1.24212022      -2.60464110        1 
H      -0.53565257       1.24827855      -2.40753737        1 
H       0.42683608       2.60548213      -1.81346831        1 
H       3.87611635       0.04037294      -0.41692340        1 
H       2.81502544       0.21469020      -1.83608619        1 
H       2.01152510      -1.69551650       1.98005888        1 
H       0.51491268      -0.96059954      -1.83763353        1 
