32
Lattice="0.0 0.0 0.0 0.0 0.0 0.0 0.0 0.0 0.0" Properties=species:S:1:pos:R:3:Z:I:1 pbc="F F F"
C       0.63131939      -0.90175525      -0.70926958        6 
C       0.45258811       0.67414021      -0.66364285        6 
C      -0.42834513      -1.74272914      -0.02798324        6 
C      -0.69397183       1.13399190       0.23472291        6 
O      -1.57862816      -1.70007784      -0.74422120        8 
O      -0.30843002      -2.36418522       0.99562382        8 
O      -1.25448636       2.28286457      -0.20693960        8 
O      -1.03950562       0.60125907       1.26075365        8 
C      -2.30849564       2.82014778       0.61241809        6 
C      -2.71031183      -2.36059965      -0.14855721        6 
C       2.06678020      -1.12028570      -0.10767023        6 
C       2.02547396      -0.71288561       1.35810091        6 
C       1.90205423       0.61623984       1.40166879        6 
C       1.84906446       1.11881133      -0.03139065        6 
C       2.79854623       0.10021380      -0.70606291        6 
C       0.28293248       1.23419886      -2.08910925        6 
H      -3.13984287       2.11578293       0.67225893        1 
H      -2.93067743      -1.91823731       0.82399069        1 
H       1.72670769       1.22634668       2.27687969        1 
H      -2.61935979       3.73811271       0.11834748        1 
H      -1.94402018       3.02778299       1.61943406        1 
H      -3.53577901      -2.20471914      -0.84018508        1 
H      -2.51159600      -3.42631333      -0.02441474        1 
H       2.04797439       2.17885832      -0.18806881        1 
H       2.47207304      -2.10800595      -0.32310335        1 
H       1.08789704       0.88688823      -2.73794402        1 
H      -0.66343691       0.90045484      -2.52125234        1 
H       0.28763467       2.32428690      -2.08953300        1 
H       3.82207232       0.19344536      -0.34129278        1 
H       2.79702133       0.13101726      -1.79750069        1 
H       1.97315563      -1.40561062       2.18416190        1 
H       0.62469920      -1.19816838      -1.76116414        1 
