32
Lattice="0.0 0.0 0.0 0.0 0.0 0.0 0.0 0.0 0.0" Properties=species:S:1:pos:R:3:Z:I:1 pbc="F F F"
C      -0.30059959      -1.04072293       0.47690500        6 
C      -0.71317644       0.45584107       0.78440412        6 
C       1.08433676      -1.41289091      -0.00115600        6 
C      -0.04180388       1.58685904      -0.01255832        6 
O       2.03185229      -0.92760438       0.82807057        8 
O       1.31938376      -2.22247337      -0.86699000        8 
O       1.23632050       1.35607578      -0.35087924        8 
O      -0.62779578       2.59224581      -0.34194245        8 
C       1.86748124       2.36639078      -1.16032038        6 
C       3.38781255      -1.27459484       0.50987437        6 
C      -1.49987348      -1.63021718      -0.31702822        6 
C      -1.67733281      -0.83249665      -1.59741037        6 
C      -2.14022031       0.37521440      -1.25755545        6 
C      -2.22839443       0.41972444       0.26616601        6 
C      -2.64381478      -1.03976858       0.54238541        6 
C      -0.59586401       0.80360630       2.27536950        6 
H       1.32436745       2.49286700      -2.09806129        1 
H       3.65096906      -0.90708661      -0.48392843        1 
H      -2.30993212       1.22403991      -1.90391347        1 
H       2.87418090       1.99858999      -1.34654657        1 
H       1.89633943       3.31899207      -0.63012842        1 
H       3.99814425      -0.78854224       1.26814234        1 
H       3.52776981      -2.35650441       0.53820480        1 
H      -2.83725579       1.21634014       0.68781359        1 
H      -1.44865124      -2.71182001      -0.42542443        1 
H      -1.21212182       0.12815679       2.87341361        1 
H       0.43939424       0.71050298       2.61164205        1 
H      -0.93595553       1.82594177       2.45627300        1 
H      -3.63271345      -1.26620631       0.14152644        1 
H      -2.59973311      -1.33384082       1.59500399        1 
H      -1.39377877      -1.18097825      -2.58115164        1 
H      -0.31793804      -1.53483576       1.45791666        1 
