32
Lattice="0.0 0.0 0.0 0.0 0.0 0.0 0.0 0.0 0.0" Properties=species:S:1:pos:R:3:Z:I:1 pbc="F F F"
C       0.21461877      -0.90512719       0.74401026        6 
C      -1.11874776      -0.06403785       0.66134261        6 
C       1.51451425      -0.13331740       0.70671049        6 
C      -0.99694516       1.37635159       0.15201812        6 
O       2.48429729      -0.81421793       0.06083150        8 
O       1.69171898       0.94368030       1.22269271        8 
O      -0.11039251       1.51683935      -0.85004888        8 
O      -1.68110086       2.28866748       0.55174938        8 
C       0.05965956       2.84823028      -1.36237961        6 
C       3.77101213      -0.17101313       0.00238768        6 
C       0.00060071      -2.08373937      -0.26772508        6 
C      -0.08998038      -1.50627864      -1.66841073        6 
C      -1.24385569      -0.83734199      -1.75115190        6 
C      -1.93861464      -0.94285671      -0.40144344        6 
C      -1.49547965      -2.37007205      -0.00109314        6 
C      -1.84691183      -0.01888562       2.01309740        6 
H      -0.88868134       3.24268273      -1.73023151        1 
H       4.16128642      -0.00278823       1.00710874        1 
H      -1.58374521      -0.22047996      -2.57176931        1 
H       0.77769895       2.75544734      -2.17476734        1 
H       0.44621044       3.50388674      -0.58091401        1 
H       4.41218418      -0.85482486      -0.54956389        1 
H       3.69161921       0.78570396      -0.51605928        1 
H      -3.00421167      -0.71675443      -0.38367014        1 
H       0.70221994      -2.90343343      -0.12686620        1 
H      -2.01635466      -1.02543672       2.39931402        1 
H      -1.25434200       0.53344901       2.74599086        1 
H      -2.80805256       0.48633952       1.91630233        1 
H      -1.90044182      -3.12808355      -0.67313929        1 
H      -1.71984992      -2.64337362       1.03190681        1 
H       0.70207027      -1.54492890      -2.40347039        1 
H       0.23031826      -1.34927348       1.74729592        1 
