32
Lattice="0.0 0.0 0.0 0.0 0.0 0.0 0.0 0.0 0.0" Properties=species:S:1:pos:R:3:Z:I:1 pbc="F F F"
C       0.15561474      -0.91509213       0.76725270        6 
C      -1.13667697      -0.01394427       0.64830176        6 
C       1.48724496      -0.19873186       0.73646951        6 
C      -0.93051170       1.41363146       0.13259163        6 
O       2.41314521      -0.87635875       0.02733666        8 
O       1.71870831       0.83812331       1.31062495        8 
O      -0.00356374       1.49931941      -0.83921036        8 
O      -1.57552008       2.36418772       0.50670706        8 
C       0.25978030       2.81613939      -1.35053246        6 
C       3.72009088      -0.27553347      -0.03293398        6 
C      -0.09625073      -2.09344682      -0.23526718        6 
C      -0.13078042      -1.52914273      -1.64431088        6 
C      -1.24916772      -0.80717470      -1.75851048        6 
C      -1.97518832      -0.86315860      -0.42289394        6 
C      -1.60930972      -2.30568936       0.00348067        6 
C      -1.88677786       0.07820330       1.98552066        6 
H      -0.64887291       3.25799129      -1.76226745        1 
H       4.15129418      -0.19631348       0.96613449        1 
H      -1.54201566      -0.18373717      -2.59228436        1 
H       1.00657140       2.67874289      -2.12993107        1 
H       0.64628047       3.45609484      -0.55613940        1 
H       4.31561486      -0.93828918      -0.65701488        1 
H       3.65805893       0.71948126      -0.47602246        1 
H      -3.02887853      -0.58609028      -0.42947218        1 
H       0.56267847      -2.94424581      -0.07266778        1 
H      -2.10646774      -0.91565696       2.37881303        1 
H      -1.28280181       0.61171183       2.72294254        1 
H      -2.82329461       0.62379075       1.86699481        1 
H      -2.03661913      -3.05174671      -0.66805221        1 
H      -1.86851808      -2.55319324       1.03464610        1 
H       0.67391159      -1.61430607      -2.36111531        1 
H       0.13551043      -1.34265857       1.77704094        1 
