32
Lattice="0.0 0.0 0.0 0.0 0.0 0.0 0.0 0.0 0.0" Properties=species:S:1:pos:R:3:Z:I:1 pbc="F F F"
C      -0.62987381       0.34149895       0.82994398        6 
C       0.88841241       0.66150736       0.54169266        6 
C      -1.26064311      -0.86559479       0.15452261        6 
C       1.67103304      -0.39784511      -0.23462965        6 
O      -2.60046233      -0.84156557       0.36416282        8 
O      -0.71813144      -1.75686940      -0.44758002        8 
O       1.83262770      -1.52054900       0.48982241        8 
O       2.20091218      -0.21592433      -1.30456142        8 
C       2.43551760      -2.63139700      -0.19356721        6 
C      -3.34755885      -1.93307999      -0.20173246        6 
C      -1.35722143       1.64660553       0.27693433        6 
C      -1.23572451       1.54691902      -1.23938329        6 
C       0.04877933       1.74997838      -1.54873467        6 
C       0.79780124       2.01745714      -0.25176744        6 
C      -0.31062453       2.74042419       0.55154595        6 
C       1.65384002       0.85349322       1.87615803        6 
H       1.80410689      -2.92954298      -1.03177776        1 
H      -3.01240725      -2.88414776       0.21514281        1 
H       0.51994834       1.64326405      -2.51450895        1 
H       2.49103047      -3.43020732       0.54309583        1 
H       3.43079709      -2.37012105      -0.55560669        1 
H      -4.38497786      -1.74254219       0.06490429        1 
H      -3.22795023      -1.95591310      -1.28613538        1 
H       1.76341799       2.51037283      -0.35063254        1 
H      -2.35865229       1.77861113       0.67900870        1 
H       1.18431135       1.61547228       2.49790413        1 
H       1.68060033      -0.07948956       2.43881812        1 
H       2.68399801       1.16429683       1.68014935        1 
H      -0.59012394       3.69297044       0.09898361        1 
H      -0.08824632       2.89556650       1.60788765        1 
H      -2.03217007       1.23829552      -1.90384327        1 
H      -0.80051734       0.23178719       1.90377917        1 
