32
Lattice="0.0 0.0 0.0 0.0 0.0 0.0 0.0 0.0 0.0" Properties=species:S:1:pos:R:3:Z:I:1 pbc="F F F"
C      -0.52035492       0.60126701      -0.92555625        6 
C      -0.70348736      -0.88103213      -0.41042035        6 
C       0.66198394       1.52642445      -0.68626968        6 
C       0.46285985      -1.70220466       0.13797623        6 
O       1.33844459       1.33153537       0.45420469        8 
O       0.83823892       2.49812115      -1.38992768        8 
O       1.67159331      -1.18517466      -0.12396823        8 
O       0.31728140      -2.83455449       0.54258148        8 
C       2.79946767      -2.02407803       0.18119021        6 
C       2.33023603       2.32071925       0.77314997        6 
C      -1.74583761       1.32866003      -0.17531534        6 
C      -1.39967817       1.33710172       1.30916046        6 
C      -1.49821153       0.07921679       1.75166369        6 
C      -1.92359134      -0.78521109       0.57510925        6 
C      -2.81847534       0.22312476      -0.18423657        6 
C      -1.10258233      -1.75158582      -1.65202831        6 
H       2.82700453      -2.25328035       1.24725873        1 
H       1.87089347       3.30514552       0.87982670        1 
H      -1.22923275      -0.29961098       2.72876087        1 
H       3.67426661      -1.44635264      -0.10940024        1 
H       2.74623606      -2.95605642      -0.38378860        1 
H       2.76743986       1.99612407       1.71499577        1 
H       3.09043635       2.36741687      -0.00828678        1 
H      -2.34119974      -1.76065982       0.81519789        1 
H      -1.99211665       2.28729352      -0.62752855        1 
H      -1.90769282      -1.28708818      -2.22028930        1 
H      -0.24906496      -1.86902620      -2.32574087        1 
H      -1.42350664      -2.74224269      -1.32855575        1 
H      -3.69886788       0.50389682       0.39494475        1 
H      -3.12864063      -0.09341387      -1.17995085        1 
H      -1.02881048       2.19546770       1.85238499        1 
H      -0.69424007       0.64104387      -1.99958291        1 
