32
Lattice="0.0 0.0 0.0 0.0 0.0 0.0 0.0 0.0 0.0" Properties=species:S:1:pos:R:3:Z:I:1 pbc="F F F"
C      -0.78833037       0.74689431       0.74802101        6 
C       0.75097986       0.40434765       0.74294327        6 
C      -1.74383455      -0.42213215       0.64590698        6 
C       1.09820920      -0.88381009      -0.00269659        6 
O      -2.46757428      -0.40761197      -0.49020024        8 
O      -1.86423983      -1.25655165       1.50983052        8 
O       2.43326797      -0.94841416      -0.22420419        8 
O       0.34339221      -1.76104414      -0.33808029        8 
C       2.89746332      -2.12095876      -0.91684073        6 
C      -3.32893180      -1.54258521      -0.69335132        6 
C      -0.90847941       1.95000652      -0.24129720        6 
C      -0.42582198       1.51467459      -1.61469281        6 
C       0.89976429       1.35448490      -1.54719022        6 
C       1.31840946       1.63092452      -0.10788705        6 
C       0.32163322       2.75470346       0.24296683        6 
C       1.32867373       0.32565648       2.16361100        6 
H       2.65207993      -3.02188850      -0.35254993        1 
H      -4.06707129      -1.61380389       0.10717751        1 
H       1.55487014       0.96537690      -2.31526317        1 
H       3.97556422      -2.00136718      -0.99969684        1 
H       2.44073018      -2.18403705      -1.90619013        1 
H      -3.81704323      -1.36940964      -1.65027139        1 
H      -2.73487988      -2.45691498      -0.72156716        1 
H       2.37754820       1.80950856       0.06537918        1 
H      -1.87939100       2.44167226      -0.20645472        1 
H       1.16413181       1.26698637       2.69388994        1 
H       0.83714341      -0.47058309       2.72836498        1 
H       2.40170497       0.12853631       2.13686125        1 
H       0.49743343       3.65732970      -0.34485083        1 
H       0.28782151       3.01054753       1.30518645        1 
H      -1.07502603       1.28541401      -2.44776095        1 
H      -0.99853138       1.14048459       1.74732427        1 
