32
Lattice="0.0 0.0 0.0 0.0 0.0 0.0 0.0 0.0 0.0" Properties=species:S:1:pos:R:3:Z:I:1 pbc="F F F"
C      -0.60695070       0.97182351       0.50176806        6 
C       0.71568955       0.16584669       0.83607597        6 
C      -1.67751334       0.21879563      -0.25862343        6 
C       0.70221475      -1.25753465       0.28869316        6 
O      -2.76615796       0.02475858       0.51583841        8 
O      -1.60430826      -0.15311736      -1.40458513        8 
O       1.85117606      -1.59758825      -0.32363411        8 
O      -0.20550622      -2.03487302       0.46668565        8 
C       1.91651499      -2.94564744      -0.82903731        6 
C      -3.81910306      -0.76057192      -0.07248180        6 
C      -0.05945615       2.21817146      -0.28755924        6 
C       0.55647382       1.72757100      -1.58983104        6 
C       1.68633543       1.08423003      -1.28247290        6 
C       1.82982027       1.10876570       0.23122024        6 
C       1.22343410       2.50025942       0.52766338        6 
C       0.87724073      -0.00981916       2.36332494        6 
H       1.79847408      -3.66390743      -0.01650741        1 
H      -3.44837049      -1.75804060      -0.31262377        1 
H       2.32438132       0.52360180      -1.94992499        1 
H       2.90025515      -3.03658479      -1.28412742        1 
H       1.13156092      -3.10676030      -1.56904757        1 
H      -4.60004413      -0.81155066       0.68323613        1 
H      -4.19295775      -0.28466545      -0.98051436        1 
H       2.82233425       0.89708609       0.62550749        1 
H      -0.79179362       3.02106740      -0.37140961        1 
H       0.89925889       0.95690381       2.86894238        1 
H       0.04709095      -0.59269437       2.76670540        1 
H       1.80954166      -0.53335539       2.59385604        1 
H       1.81746273       3.30859623       0.09961426        1 
H       1.03932512       2.70144511       1.58561554        1 
H       0.08545498       1.79924492      -2.55927799        1 
H      -1.05227278       1.30850329       1.43795093        1 
