32
Lattice="0.0 0.0 0.0 0.0 0.0 0.0 0.0 0.0 0.0" Properties=species:S:1:pos:R:3:Z:I:1 pbc="F F F"
C       0.09264988       0.89535346       0.86961119        6 
C       1.18191677      -0.21897537       0.56453166        6 
C      -1.34451334       0.42391871       0.81242730        6 
C       0.59798797      -1.55133540       0.08346796        6 
O      -2.11337106       1.16649960      -0.00701873        8 
O      -1.77577698      -0.48871843       1.47756962        8 
O      -0.24241959      -1.41165253      -0.96288542        8 
O       0.82552843      -2.62017884       0.59450679        8 
C      -0.92571278      -2.60506175      -1.38447608        6 
C      -3.49423430       0.77280597      -0.10207244        6 
C       0.51002036       2.08719978      -0.06367482        6 
C       0.31410867       1.66519521      -1.51022544        6 
C       1.23853003       0.74253342      -1.78721619        6 
C       2.06709700       0.52598057      -0.53008996        6 
C       2.04787055       1.96986724       0.03358540        6 
C       2.01300873      -0.53408934       1.82073969        6 
H      -0.21175658      -3.37869743      -1.67003169        1 
H      -3.98025878       0.83750863       0.87251156        1 
H       1.32613463       0.15573201      -2.69094653        1 
H      -1.52817921      -2.30541032      -2.23991123        1 
H      -1.55855837      -2.97696918      -0.57702833        1 
H      -3.94677293       1.46961203      -0.80427147        1 
H      -3.57050909      -0.25052298      -0.47295824        1 
H       3.03761136       0.04926608      -0.66622598        1 
H       0.05857323       3.03502905       0.22512931        1 
H       2.45529509       0.37139514       2.23711115        1 
H       1.38349959      -0.99420561       2.58411164        1 
H       2.81364211      -1.23795713       1.58821544        1 
H       2.55916425       2.67215123      -0.62572819        1 
H       2.43927420       2.07070486       1.04698832        1 
H      -0.50405770       1.98591145      -2.13862064        1 
H       0.23095241       1.19783499       1.91181256        1 
