32
Lattice="0.0 0.0 0.0 0.0 0.0 0.0 0.0 0.0 0.0" Properties=species:S:1:pos:R:3:Z:I:1 pbc="F F F"
C       0.65460420      -0.70777636      -0.81383141        6 
C       0.51076101       0.85903720      -0.54942676        6 
C      -0.33622807      -1.70638543      -0.23819598        6 
C      -0.66988090       1.29489973       0.32775973        6 
O      -1.61248694      -1.28472206      -0.30264452        8 
O      -0.02688070      -2.80277394       0.16334551        8 
O      -1.79804014       1.46727625      -0.38865220        8 
O      -0.60600533       1.56454475       1.50384208        8 
C      -2.96844782       1.83189772       0.35684570        6 
C      -2.61438454      -2.21048682       0.15748441        6 
C       2.10538377      -1.02384071      -0.29818923        6 
C       2.06023403      -0.88160367       1.21738699        6 
C       1.92582867       0.41935336       1.49040855        6 
C       1.88680164       1.16750143       0.16216260        6 
C       2.84469881       0.27665828      -0.66655632        6 
C       0.40053654       1.61478671      -1.89445404        6 
H      -3.19536077       1.06831678       1.10347022        1 
H      -2.46192706      -2.44339198       1.21224240        1 
H       1.76466788       0.87886750       2.45340654        1 
H      -3.76982455       1.90028958      -0.37604042        1 
H      -2.82548310       2.78957735       0.86008247        1 
H      -3.56485288      -1.70222618       0.00922042        1 
H      -2.57694974      -3.13315007      -0.42338120        1 
H       2.10044337       2.23510428       0.20720104        1 
H       2.50055403      -1.96078424      -0.68486687        1 
H       1.25561268       1.40040883      -2.53594586        1 
H      -0.50812973       1.32936599      -2.42382643        1 
H       0.36801770       2.69491144      -1.72761836        1 
H       3.86284044       0.29514641      -0.27599937        1 
H       2.86584353       0.49373030      -1.73580085        1 
H       2.02523026      -1.71228417       1.90771606        1 
H       0.59832414      -0.86270220      -1.89760024        1 
