32
Lattice="0.0 0.0 0.0 0.0 0.0 0.0 0.0 0.0 0.0" Properties=species:S:1:pos:R:3:Z:I:1 pbc="F F F"
C      -0.79669565       0.66460048       0.67706374        6 
C       0.74925792       0.33767545       0.76256588        6 
C      -1.78315278      -0.47622633       0.54677757        6 
C       1.20170296      -0.93902025       0.04069090        6 
O      -2.64403443      -0.28373655      -0.48033476        8 
O      -1.81655778      -1.43786007       1.26982986        8 
O       2.46259188      -0.78648012      -0.44329521        8 
O       0.63254462      -1.99829746       0.01061157        8 
C       3.04203844      -1.95248574      -1.05325666        6 
C      -3.61854464      -1.32475255      -0.67911485        6 
C      -0.88600011       1.89316116      -0.27665381        6 
C      -0.31783007       1.50908157      -1.63151931        6 
C       1.00421453       1.37054538      -1.48875182        6 
C       1.33246180       1.60471671      -0.01617445        6 
C       0.29792185       2.70256717       0.30473231        6 
C       1.23509850       0.22028097       2.21443115        6 
H       3.08252748      -2.77888811      -0.34209449        1 
H      -4.24965660      -1.43230352       0.20462884        1 
H       1.71476706       1.03434524      -2.23028784        1 
H       4.04409729      -1.65455535      -1.35503767        1 
H       2.45571051      -2.25858821      -1.92153078        1 
H      -4.21038241      -1.00907339      -1.53588352        1 
H      -3.12054180      -2.27392521      -0.88147744        1 
H       2.37598797       1.80260591       0.21774651        1 
H      -1.86776524       2.36279480      -0.28061532        1 
H       1.03054036       1.14351273       2.76258000        1 
H       0.71904082      -0.60100247       2.71693686        1 
H       2.31117226       0.03361494       2.24991577        1 
H       0.49329135       3.62401037      -0.24618204        1 
H       0.19368812       2.92773791       1.36947197        1 
H      -0.91179871       1.31038534      -2.51296586        1 
H      -1.04778949       1.04899761       1.67416156        1 
