32
Lattice="0.0 0.0 0.0 0.0 0.0 0.0 0.0 0.0 0.0" Properties=species:S:1:pos:R:3:Z:I:1 pbc="F F F"
C      -0.77620758       0.66939184       0.59179631        6 
C       0.73512021       0.23781397       0.71974141        6 
C      -1.76314794      -0.18582127      -0.17961273        6 
C       1.09410675      -1.12829543       0.14796403        6 
O      -2.85323549      -0.43051859       0.59188118        8 
O      -1.65799056      -0.58232474      -1.31065036        8 
O       2.42797095      -1.21006405      -0.07638351        8 
O       0.33709597      -2.03846177      -0.06878488        8 
C       2.89823182      -2.46733156      -0.59603532        6 
C      -3.88060488      -1.23313051      -0.01569421        6 
C      -0.64237979       2.07377559      -0.14853377        6 
C      -0.10117670       1.79667038      -1.54501882        6 
C       1.17793354       1.43182398      -1.41608524        6 
C       1.50753053       1.44593938       0.06582857        6 
C       0.62640957       2.62943938       0.52669548        6 
C       1.10021037       0.09843029       2.22513050        6 
H       2.69692324      -3.27317135       0.11180658        1 
H      -3.48117515      -2.20860951      -0.29740771        1 
H       1.83650443       1.06255463      -2.19051590        1 
H       3.96940403      -2.34046127      -0.73764114        1 
H       2.40738813      -2.69330186      -1.54369790        1 
H      -4.65370096      -1.33809095       0.74278372        1 
H      -4.27995820      -0.73977694      -0.90373684        1 
H       2.56254294       1.46509780       0.33026467        1 
H      -1.55149486       2.67158660      -0.08944289        1 
H       0.88056757       1.01591923       2.77245638        1 
H       0.52615531      -0.71151629       2.68305195        1 
H       2.16319671      -0.12344524       2.33841652        1 
H       0.94863880       3.57542641       0.08882428        1 
H       0.53949778       2.74104597       1.60930241        1 
H      -0.69766181       1.78339832      -2.44561503        1 
H      -1.18977287       0.82745458       1.58613451        1 
