32
Lattice="0.0 0.0 0.0 0.0 0.0 0.0 0.0 0.0 0.0" Properties=species:S:1:pos:R:3:Z:I:1 pbc="F F F"
C      -0.05623619      -0.97345056       0.79717435        6 
C      -1.10166648       0.20809401       0.66119984        6 
C       1.41701753      -0.62522711       0.80874735        6 
C      -0.64859747       1.51159394       0.00255901        6 
O       2.06939632      -1.06252319      -0.28788832        8 
O       1.96645931      -0.07909728       1.73554746        8 
O       0.64669830       1.54393398      -0.34291393        8 
O      -1.41308248       2.42044744      -0.22696211        8 
C       1.09678832       2.72463815      -1.03040853        6 
C       3.47131600      -0.75409230      -0.34643998        6 
C      -0.56208661      -2.03208953      -0.24084757        6 
C      -0.51569404      -1.41749211      -1.63142311        6 
C      -1.47852695      -0.49278710      -1.69758497        6 
C      -2.16030427      -0.44922230      -0.33735849        6 
C      -2.07868772      -1.93972066       0.05054997        6 
C      -1.73263466       0.56691717       2.01657396        6 
H       0.57898287       2.82405023      -1.98582941        1 
H       4.00273752      -1.21304587       0.48881878        1 
H      -1.67511916       0.19974888      -2.50534263        1 
H       2.16345233       2.57910609      -1.18540700        1 
H       0.91241750       3.61248735      -0.42504247        1 
H       3.82037509      -1.16139447      -1.29312707        1 
H       3.62224352       0.32618324      -0.31361850        1 
H      -3.12874731       0.04510182      -0.29530845        1 
H      -0.08710512      -3.00565801      -0.12899591        1 
H      -2.22183327      -0.30645763       2.45349700        1 
H      -0.96728638       0.91173645       2.71670843        1 
H      -2.47460891       1.35648264       1.89035469        1 
H      -2.67505415      -2.56899741      -0.61223600        1 
H      -2.34315461      -2.14988678       1.08989909        1 
H       0.23683723      -1.63967593      -2.37417045        1 
H      -0.21352801      -1.39569791       1.79346110        1 
