32
Lattice="0.0 0.0 0.0 0.0 0.0 0.0 0.0 0.0 0.0" Properties=species:S:1:pos:R:3:Z:I:1 pbc="F F F"
C      -0.74246568      -0.24678366      -0.91720198        6 
C       0.62407225      -0.92288554      -0.45779335        6 
C      -0.86772842       1.23001640      -0.59699217        6 
C       1.46571914       0.02268196       0.41326602        6 
O      -2.04055740       1.54026641      -0.01656498        8 
O      -0.03399738       2.05486463      -0.89116369        8 
O       2.58448068       0.43537394      -0.20902056        8 
O       1.18304173       0.36767228       1.53643154        8 
C       3.35472560       1.43104326       0.48629072        6 
C      -2.24189512       2.93090495       0.29967792        6 
C      -1.84358547      -1.20388193      -0.33129141        6 
C      -1.80909733      -1.09123774       1.18508110        6 
C      -0.66998732      -1.65035188       1.60076367        6 
C       0.07214339      -2.15792318       0.37067049        6 
C      -1.13889420      -2.56790217      -0.50654472        6 
C       1.43224350      -1.39976252      -1.67915200        6 
H       2.75564720       2.33286975       0.61966895        1 
H      -2.19981724       3.53773840      -0.60592769        1 
H      -0.27044776      -1.65602394       2.60381066        1 
H       4.21237868       1.63088589      -0.15240026        1 
H       3.67560378       1.05939531       1.46043100        1 
H      -3.22913437       2.98346578       0.75316025        1 
H      -1.47761527       3.27204794       0.99906079        1 
H       0.83997774      -2.91145122       0.54686396        1 
H      -2.81583052      -1.07648752      -0.80497873        1 
H       0.84494507      -2.08945900      -2.28677005        1 
H       1.72261190      -0.55584634      -2.30510621        1 
H       2.34290669      -1.91457283      -1.36571441        1 
H      -1.70662288      -3.38641695      -0.06283209        1 
H      -0.89304681      -2.81589238      -1.54067597        1 
H      -2.52667928      -0.54208974       1.77694822        1 
H      -0.77520478      -0.28631643      -2.01119802        1 
