32
Lattice="0.0 0.0 0.0 0.0 0.0 0.0 0.0 0.0 0.0" Properties=species:S:1:pos:R:3:Z:I:1 pbc="F F F"
C      -0.68175248       0.79744642       0.55096363        6 
C       0.79833839       0.33483772       0.86569646        6 
C      -1.58838563      -0.21002496      -0.11361587        6 
C       1.04230593      -1.12837315       0.48630503        6 
O      -2.82859115      -0.16026600       0.42321741        8 
O      -1.29509548      -0.94064664      -1.02937752        8 
O       1.89653573      -1.29618433      -0.53468224        8 
O       0.55457111      -2.05078703       1.09711335        8 
C       2.05934392      -2.65047341      -0.99703890        6 
C      -3.80032933      -1.05141073      -0.15506610        6 
C      -0.46742855       2.07465480      -0.35989397        6 
C       0.14578171       1.62263381      -1.67387349        6 
C       1.39889303       1.23823573      -1.41745360        6 
C       1.64188023       1.41449510       0.07396592        6 
C       0.77957375       2.67835215       0.32208809        6 
C       1.07205551       0.41300645       2.38343310        6 
H       2.49471447      -3.27397425      -0.21488202        1 
H      -3.46729741      -2.08601639      -0.06304651        1 
H       2.09192354       0.77291873      -2.10160824        1 
H       2.72777964      -2.58532132      -1.85314802        1 
H       1.09158955      -3.05635681      -1.29305972        1 
H      -4.71497179      -0.89021916       0.41153671        1 
H      -3.95577923      -0.81569851      -1.20926773        1 
H       2.68422745       1.44554672       0.38921320        1 
H      -1.36028417       2.69602710      -0.42415938        1 
H       0.89818498       1.41905397       2.76522282        1 
H       0.42317580      -0.28218288       2.91723017        1 
H       2.10909117       0.14100447       2.59963695        1 
H       1.15938076       3.54889234      -0.21411096        1 
H       0.63049724       2.93416491       1.37254438        1 
H      -0.39019719       1.52650075      -2.60799316        1 
H      -1.16554196       1.10915902       1.47666465        1 
