32
Lattice="0.0 0.0 0.0 0.0 0.0 0.0 0.0 0.0 0.0" Properties=species:S:1:pos:R:3:Z:I:1 pbc="F F F"
C       0.66801806      -0.62712543      -0.88745510        6 
C       0.48517300       0.90967292      -0.52276183        6 
C      -0.24968013      -1.73359814      -0.37930776        6 
C      -0.76636818       1.34159351       0.24195475        6 
O      -1.46224448      -1.33658654       0.03313958        8 
O       0.10582596      -2.88939720      -0.34013992        8 
O      -1.87706450       1.25556184      -0.51539944        8 
O      -0.75927531       1.86912125       1.32949855        8 
C      -3.10176808       1.66278314       0.11035423        6 
C      -2.33811518      -2.37275499       0.51665286        6 
C       2.11081183      -0.93497253      -0.30118086        6 
C       1.93665421      -0.91446379       1.21498195        6 
C       1.72848050       0.35623208       1.57385796        6 
C       1.78432070       1.20403893       0.30943102        6 
C       2.83312455       0.40667716      -0.50274432        6 
C       0.46761082       1.75215992      -1.82743075        6 
H      -3.31889627       1.02451327       0.96933549        1 
H      -1.90397199      -2.86171295       1.38965374        1 
H       1.46126928       0.73495300       2.54925533        1 
H      -3.87030971       1.54933474      -0.65153823        1 
H      -3.04032673       2.69989992       0.44383479        1 
H      -3.26435379      -1.86659260       0.77981226        1 
H      -2.51309681      -3.11590635      -0.26223405        1 
H       1.95443850       2.26943883       0.45534287        1 
H       2.55650992      -1.83077914      -0.72584793        1 
H       1.36894447       1.58933598      -2.41838733        1 
H      -0.39524848       1.49591314      -2.44236040        1 
H       0.40951947       2.81886153      -1.59204254        1 
H       3.81517465       0.41739146      -0.02809211        1 
H       2.93648565       0.70919004      -1.54561118        1 
H       1.87500398      -1.79795399       1.83572361        1 
H       0.67471388      -0.73232667      -1.97667956        1 
