32
Lattice="0.0 0.0 0.0 0.0 0.0 0.0 0.0 0.0 0.0" Properties=species:S:1:pos:R:3:Z:I:1 pbc="F F F"
C      -0.56476097      -0.93980563       0.73893122        6 
C      -0.92610308       0.61155999       0.64128387        6 
C       0.88178511      -1.38975368       0.75875895        6 
C       0.26067738       1.55648225       0.38444870        6 
O       1.54331898      -1.15657053      -0.38940986        8 
O       1.38259382      -1.96062035       1.70106315        8 
O       0.75266364       1.49951584      -0.86256205        8 
O       0.68440381       2.33364087       1.20933112        8 
C       1.88790397       2.33405723      -1.13901035        6 
C       2.90777157      -1.60788931      -0.43914941        6 
C      -1.45489893      -1.59577633      -0.38714857        6 
C      -0.99144764      -1.10673763      -1.74734718        6 
C      -1.32401544       0.18269964      -1.84195216        6 
C      -2.00067866       0.58360007      -0.54134772        6 
C      -2.73362941      -0.74438994      -0.22403855        6 
C      -1.57589968       1.07896400       1.95658971        6 
H       1.63748642       3.38704679      -1.00129804        1 
H       2.95717338      -2.69146640      -0.32046368        1 
H      -1.07359653       0.86499139      -2.64042216        1 
H       2.14548473       2.13304362      -2.17705248        1 
H       2.71886356       2.07486237      -0.48091142        1 
H       3.27210160      -1.31345337      -1.42133539        1 
H       3.49588912      -1.13491955       0.34863060        1 
H      -2.60098171       1.49291134      -0.57055483        1 
H      -1.55237439      -2.67449786      -0.26445524        1 
H      -2.44470127       0.46875250       2.20406983        1 
H      -0.86449863       1.01529156       2.78074598        1 
H      -1.89592912       2.12004446       1.87923739        1 
H      -3.48605960      -0.98479867      -0.97602436        1 
H      -3.18164625      -0.79628736       0.76911257        1 
H      -0.40937730      -1.68723209      -2.44868774        1 
H      -0.94001827      -1.28822569       1.70155080        1 
