32
Lattice="0.0 0.0 0.0 0.0 0.0 0.0 0.0 0.0 0.0" Properties=species:S:1:pos:R:3:Z:I:1 pbc="F F F"
C      -0.72568569       0.92867334       0.56847608        6 
C       0.64848933       0.18648869       0.76591000        6 
C      -1.88168593       0.17446439      -0.04896469        6 
C       0.81767299      -1.03286559      -0.13645445        6 
O      -2.18772142      -0.91189656       0.69490198        8 
O      -2.54139156       0.55315772      -0.98471385        8 
O       2.03775250      -1.59104458       0.04220373        8 
O       0.02335625      -1.45852827      -0.93768073        8 
C       2.33578315      -2.72843463      -0.78740534        6 
C      -3.22812974      -1.75565401       0.17308864        6 
C      -0.33953456       2.25905079      -0.14587985        6 
C       0.28014639       1.91681821      -1.49141845        6 
C       1.48215638       1.37973403      -1.25853411        6 
C       1.66531657       1.30988003       0.25142036        6 
C       0.93215375       2.60304038       0.66566020        6 
C       0.89115094      -0.20469153       2.23184306        6 
H       1.62653084      -3.53558750      -0.59787705        1 
H      -2.92376852      -2.16315807      -0.79243342        1 
H       2.15194438       0.93361136      -1.98217944        1 
H       3.34375471      -3.03161367      -0.51265493        1 
H       2.29011664      -2.45453337      -1.84269970        1 
H      -3.35071000      -2.55362317       0.90265826        1 
H      -4.15757480      -1.19623391       0.05640032        1 
H       2.67910579       1.15243100       0.61483111        1 
H      -1.14708299       2.98858285      -0.16301850        1 
H       0.85154214       0.68021530       2.87043955        1 
H       0.12093413      -0.90165344       2.57252399        1 
H       1.86676337      -0.67591288       2.35477544        1 
H       1.43813463       3.49651250       0.29719142        1 
H       0.75809938       2.69811945       1.74071643        1 
H      -0.23213669       2.00224163      -2.43912976        1 
H      -1.08538724       1.18408640       1.57106640        1 
