32
Lattice="0.0 0.0 0.0 0.0 0.0 0.0 0.0 0.0 0.0" Properties=species:S:1:pos:R:3:Z:I:1 pbc="F F F"
C      -0.62412543       0.98416406       0.51990814        6 
C       0.68083754       0.13177683       0.80079379        6 
C      -1.74383714       0.30707118      -0.24485803        6 
C       0.68716083      -1.23797298       0.13332194        6 
O      -2.68708086      -0.14773109       0.60733428        8 
O      -1.82528220       0.20574825      -1.44409771        8 
O       1.93837956      -1.62878471      -0.18847055        8 
O      -0.27938853      -1.94391729      -0.02130211        8 
C       2.05465685      -2.93678198      -0.77978052        6 
C      -3.74228556      -0.92444905       0.01387560        6 
C      -0.05554271       2.25074955      -0.21228154        6 
C       0.55259907       1.80191257      -1.53440100        6 
C       1.67265451       1.12873419      -1.25345508        6 
C       1.81487558       1.09126048       0.26071962        6 
C       1.22890929       2.47454342       0.61766643        6 
C       0.83310981      -0.15916891       2.31126362        6 
H       1.69653757      -3.70170405      -0.08892326        1 
H      -3.32509060      -1.81648537      -0.45603440        1 
H       2.30440782       0.58567774      -1.94236602        1 
H       3.11490830      -3.06929254      -0.98382253        1 
H       1.47461862      -2.98667493      -1.70240606        1 
H      -4.40158871      -1.19569897       0.83573625        1 
H      -4.27988036      -0.33759292      -0.73271298        1 
H       2.80059445       0.84345629       0.64958693        1 
H      -0.77269282       3.06945625      -0.26584992        1 
H       0.86072772       0.77099561       2.88187468        1 
H      -0.00739705      -0.75661203       2.67202321        1 
H       1.75879330      -0.70654504       2.50690502        1 
H       1.83847041       3.29286734       0.23205181        1 
H       1.04463822       2.62628261       1.68410793        1 
H       0.08112439       1.92147867      -2.49842432        1 
H      -1.04038978       1.28493987       1.48217896        1 
