32
Lattice="0.0 0.0 0.0 0.0 0.0 0.0 0.0 0.0 0.0" Properties=species:S:1:pos:R:3:Z:I:1 pbc="F F F"
C       0.87856028      -0.73314323      -0.72532124        6 
C       0.54703360       0.81867844      -0.70826105        6 
C      -0.13255409      -1.80286637      -0.35545050        6 
C      -0.92477483       1.18250797      -0.47634447        6 
O      -1.34181730      -1.34328207      -0.00253070        8 
O       0.15509337      -2.97793284      -0.34905984        8 
O      -1.18608004       1.60470859       0.77563114        8 
O      -1.76524461       1.15923856      -1.34272133        8 
C      -2.56060529       1.92125247       1.05172170        6 
C      -2.32947309      -2.32999584       0.34664072        6 
C       2.10024220      -0.84167189       0.28030252        6 
C       1.52959221      -0.59260020       1.66982897        6 
C       1.20216454       0.70130552       1.73571260        6 
C       1.55337577       1.33782469       0.39636041        6 
C       2.81029138       0.50296411       0.04022199        6 
C       0.88181150       1.43175007      -2.08964849        6 
H      -2.90512341       2.73462678       0.41137346        1 
H      -2.03170795      -2.86201947       1.25140283        1 
H       0.68969265       1.20986037       2.53828751        1 
H      -2.58658716       2.21796647       2.09820586        1 
H      -3.18874715       1.04492607       0.88440671        1 
H      -3.24802216      -1.77128090       0.51182409        1 
H      -2.45588347      -3.04409544      -0.46755056        1 
H       1.65303941       2.42268013       0.39464197        1 
H       2.66991802      -1.75818440       0.14375859        1 
H       1.89372846       1.18443992      -2.40899773        1 
H       0.18218532       1.06354422      -2.84028928        1 
H       0.79280562       2.52126151      -2.05649646        1 
H       3.62506947       0.66532874       0.74683529        1 
H       3.18038979       0.64003154      -0.97585542        1 
H       1.33268364      -1.36383489       2.40265136        1 
H       1.22015305      -1.00767090      -1.72689460        1 
