32
Lattice="0.0 0.0 0.0 0.0 0.0 0.0 0.0 0.0 0.0" Properties=species:S:1:pos:R:3:Z:I:1 pbc="F F F"
C      -0.52954895       0.64490810       0.67779858        6 
C       1.00695849       0.27514466       0.62226495        6 
C      -1.53324927      -0.30411321       0.06818234        6 
C       1.33488344      -0.95181692      -0.24114520        6 
O      -2.75665024      -0.06804371       0.60430386        8 
O      -1.34393625      -1.12727119      -0.79190526        8 
O       1.24195630      -2.08893058       0.48445378        8 
O       1.58750296      -0.95329078      -1.41816082        8 
C       1.32284288      -3.31289598      -0.26770672        6 
C      -3.84384727      -0.84286429       0.06733977        6 
C      -0.59706587       2.08686083       0.03560310        6 
C      -0.21845410       1.96844875      -1.42888823        6 
C       1.08501271       1.67993750      -1.47983554        6 
C       1.59699416       1.59276502      -0.04742629        6 
C       0.70917228       2.67823388       0.60673723        6 
C       1.56774918       0.07119477       2.04222265        6 
H       0.52377142      -3.34106774      -1.00983772        1 
H      -3.68096861      -1.90674692       0.24747039        1 
H       1.66689623       1.43724120      -2.35499608        1 
H       1.20156584      -4.11027245       0.46287100        1 
H       2.28846117      -3.39493843      -0.76871924        1 
H      -4.73196677      -0.49881152       0.59313678        1 
H      -3.94289666      -0.67266884      -1.00593218        1 
H       2.67601099       1.67774868       0.07943497        1 
H      -1.52988098       2.59980974       0.26522331        1 
H       1.42456919       0.96666227       2.64866700        1 
H       1.07453531      -0.76464575       2.53916951        1 
H       2.63852175      -0.14617927       2.00849059        1 
H       0.91650836       3.67320896       0.21127451        1 
H       0.74338122       2.70432605       1.69757399        1 
H      -0.91573174       1.99581234      -2.25544902        1 
H      -0.81666136       0.74270870       1.72754504        1 
