32
Lattice="0.0 0.0 0.0 0.0 0.0 0.0 0.0 0.0 0.0" Properties=species:S:1:pos:R:3:Z:I:1 pbc="F F F"
C      -0.82973646      -0.39840878      -0.59610403        6 
C       0.75386056      -0.34532020      -0.66451156        6 
C      -1.66788160       0.67327230       0.07044704        6 
C       1.47020875       0.69350265       0.20973354        6 
O      -2.77219065       0.89245562      -0.70299788        8 
O      -1.49384778       1.23516837       1.11770672        8 
O       2.47981500       1.30023482      -0.47033247        8 
O       1.23354071       0.94924953       1.35964641        8 
C       3.24268716       2.26023562       0.27954747        6 
C      -3.74033179       1.80726610      -0.16278597        6 
C      -1.12760540      -1.82180167       0.04205869        6 
C      -0.59950883      -1.82100342       1.46314576        6 
C       0.73467060      -1.81718638       1.39187403        6 
C       1.11693743      -1.79852916      -0.07953338        6 
C      -0.03359669      -2.64811634      -0.66278323        6 
C       1.19309544      -0.22837447      -2.13740453        6 
H       2.59758290       3.06068381       0.64511247        1 
H      -3.29454584       2.79106677      -0.00740822        1 
H       1.42913586      -1.70158057       2.21117732        1 
H       3.98243784       2.64959861      -0.41705444        1 
H       3.73108052       1.78211306       1.13058917        1 
H      -4.53624015       1.85971718      -0.90288526        1 
H      -4.12694755       1.43867635       0.78940398        1 
H       2.13716554      -2.09529799      -0.32299058        1 
H      -2.16262149      -2.13075404      -0.10175015        1 
H       0.69967893      -0.98660633      -2.74612289        1 
H       0.93103980       0.75087488      -2.54415691        1 
H       2.27074029      -0.35310428      -2.24048693        1 
H      -0.00031091      -3.67875690      -0.30695450        1 
H      -0.10369070      -2.64188248      -1.75196240        1 
H      -1.20615907      -1.70514169       2.35017285        1 
H      -1.18342069      -0.43388016      -1.62635927        1 
