32
Lattice="0.0 0.0 0.0 0.0 0.0 0.0 0.0 0.0 0.0" Properties=species:S:1:pos:R:3:Z:I:1 pbc="F F F"
C      -0.35864752       1.16299701       0.44477716        6 
C       0.65181124       0.00120526       0.85093341        6 
C      -1.61054734       0.74304079      -0.29198281        6 
C       0.32990084      -1.35546677       0.21500812        6 
O      -2.53229094       0.28803364       0.57841280        8 
O      -1.81124205       0.86615737      -1.47694694        8 
O       1.37563910      -1.89489231      -0.44202239        8 
O      -0.70308147      -1.95844814       0.38745672        8 
C       1.16506409      -3.20921445      -0.99101794        6 
C      -3.72114442      -0.28471949       0.00762767        6 
C       0.53963017       2.20528139      -0.28419403        6 
C       1.09339438       1.57373265      -1.55031011        6 
C       1.98661027       0.65309230      -1.17817497        6 
C       2.01944146       0.62820377       0.34663494        6 
C       1.78653605       2.13120416       0.62810448        6 
C       0.63762760      -0.24827970       2.37045196        6 
H       0.92984187      -3.92087181      -0.19824231        1 
H      -3.46389473      -1.19044338      -0.54365372        1 
H       2.51617033      -0.04090022      -1.81336777        1 
H       2.10172757      -3.47170253      -1.47811039        1 
H       0.34766748      -3.19249051      -1.71318832        1 
H      -4.36165824      -0.52649144       0.85300431        1 
H      -4.21157315       0.42627727      -0.65850599        1 
H       2.89139285       0.15693180       0.79827778        1 
H       0.05490243       3.17386051      -0.40150280        1 
H       0.89594988       0.66363045       2.91122247        1 
H      -0.35366102      -0.57599733       2.68819147        1 
H       1.36112663      -1.02249945       2.64183133        1 
H       2.60806594       2.74933791       0.26434380        1 
H       1.58427277       2.37149519       1.67493302        1 
H       0.73750468       1.78444619      -2.54820199        1 
H      -0.71315640       1.60365758       1.38022411        1 
