32
Lattice="0.0 0.0 0.0 0.0 0.0 0.0 0.0 0.0 0.0" Properties=species:S:1:pos:R:3:Z:I:1 pbc="F F F"
C       0.73647820      -0.95901491      -0.67110812        6 
C       0.75238474       0.62680605      -0.73755194        6 
C      -0.57703250      -1.67986238      -0.47627136        6 
C      -0.62952547       1.25252279      -0.52296872        6 
O      -1.34338731      -1.13494814       0.49043765        8 
O      -0.89519505      -2.66902767      -1.09305340        8 
O      -0.76783205       1.89953539       0.64683374        8 
O      -1.49033288       1.25243239      -1.37231631        8 
C      -2.05696434       2.49039217       0.88477201        6 
C      -2.62932955      -1.74540794       0.70043982        6 
C       1.80127211      -1.28330803       0.45092821        6 
C       1.27710100      -0.77320180       1.78300327        6 
C       1.30584889       0.56087104       1.73786315        6 
C       1.83623730       0.96745361       0.36857696        6 
C       2.84301568      -0.18738565       0.13782190        6 
C       1.20496786       1.10269575      -2.13469147        6 
H      -2.29054008       3.22630257       0.11423440        1 
H      -2.51749213      -2.80287273       0.94298827        1 
H       0.92656584       1.25004059       2.47679261        1 
H      -1.98352817       2.96412283       1.86137317        1 
H      -2.82809988       1.71843953       0.88827944        1 
H      -3.07366472      -1.20543548       1.53404515        1 
H      -3.24379517      -1.64224882      -0.19516031        1 
H       2.21280435       1.98651244       0.28586334        1 
H       2.13315487      -2.32051916       0.41984907        1 
H       2.17989606       0.69012690      -2.39387607        1 
H       0.48276731       0.79534784      -2.89178106        1 
H       1.27863091       2.19344392      -2.16341103        1 
H       3.65866561      -0.17498456       0.86159304        1 
H       3.25402669      -0.24285635      -0.87194595        1 
H       0.86334301      -1.39550840       2.56462268        1 
H       1.11551089      -1.34868312      -1.61666847        1 
