32
Lattice="0.0 0.0 0.0 0.0 0.0 0.0 0.0 0.0 0.0" Properties=species:S:1:pos:R:3:Z:I:1 pbc="F F F"
C      -0.66005126       0.93204506       0.53926166        6 
C       0.69427348       0.15102591       0.78357877        6 
C      -1.75377756       0.22246295      -0.23533839        6 
C       0.75677437      -1.22186657       0.12831896        6 
O      -2.71347960      -0.22095936       0.60614340        8 
O      -1.80370877       0.08199784      -1.43184841        8 
O       2.03044268      -1.57740097      -0.14622122        8 
O      -0.18429560      -1.95013861      -0.07025788        8 
C       2.20608737      -2.88348140      -0.72652257        6 
C      -3.75446374      -1.00892643       0.00202356        6 
C      -0.16851077       2.23855670      -0.18619805        6 
C       0.42838494       1.83754229      -1.52918159        6 
C       1.58436190       1.21258176      -1.28454685        6 
C       1.76712726       1.16597119       0.22419902        6 
C       1.12476950       2.51565614       0.61313826        6 
C       0.89406267      -0.12630511       2.29343271        6 
H       1.83870322      -3.65534421      -0.04833090        1 
H      -3.32501134      -1.90043690      -0.45762751        1 
H       2.22291619       0.70821183      -1.99647166        1 
H       3.27724723      -2.98897521      -0.88420164        1 
H       1.66825817      -2.95243514      -1.67331153        1 
H      -4.42424718      -1.27941362       0.81563364        1 
H      -4.28490583      -0.42994683      -0.75590151        1 
H       2.77276561       0.96000476       0.58510764        1 
H      -0.92561893       3.02215866      -0.21110547        1 
H       0.88031673       0.80439650       2.86329167        1 
H       0.09533095      -0.76834973       2.67277671        1 
H       1.85210362      -0.62112596       2.47097260        1 
H       1.68325550       3.36630098       0.22020340        1 
H       0.96224617       2.64880961       1.68539585        1 
H      -0.07037064       1.94762908      -2.48048748        1 
H      -1.07932685       1.19730142       1.50982266        1 
