32
Lattice="0.0 0.0 0.0 0.0 0.0 0.0 0.0 0.0 0.0" Properties=species:S:1:pos:R:3:Z:I:1 pbc="F F F"
C      -0.62140067       0.34643886       0.83113154        6 
C       0.89996251       0.64222120       0.53863512        6 
C      -1.28261403      -0.83908165       0.14481529        6 
C       1.67756535      -0.42960499      -0.22333256        6 
O      -2.62030934      -0.78772741       0.36737631        8 
O      -0.76700635      -1.73502941      -0.47331084        8 
O       1.76159125      -1.57266141       0.48141773        8 
O       2.28298817      -0.23663545      -1.25081441        8 
C       2.37135600      -2.68704786      -0.18940590        6 
C      -3.39697774      -1.85316568      -0.20782187        6 
C      -1.32473393       1.66814367       0.27940398        6 
C      -1.20843721       1.56205627      -1.23744954        6 
C       0.07920889       1.73877696      -1.55033651        6 
C       0.83548378       1.99693680      -0.25607019        6 
C      -0.25737882       2.74265257       0.54779026        6 
C       1.66999003       0.82339087       1.87373993        6 
H       1.76934552      -2.96405803      -1.05621264        1 
H      -3.08035101      -2.81794165       0.19167953        1 
H       0.54649299       1.61876836      -2.51671852        1 
H       2.38093705      -3.49529004       0.53893779        1 
H       3.38528510      -2.44106059      -0.50736527        1 
H      -4.42745502      -1.64297790       0.07082385        1 
H      -3.28753651      -1.86259218      -1.29354731        1 
H       1.81024774       2.47038283      -0.35798009        1 
H      -2.32271323       1.81936642       0.68302100        1 
H       1.21557971       1.59608652       2.49333756        1 
H       1.67790906      -0.10848152       2.43913050        1 
H       2.70585171       1.11316573       1.67589727        1 
H      -0.52022555       3.69879724       0.09282143        1 
H      -0.02932365       2.89740043       1.60294452        1 
H      -2.01191172       1.26622931      -1.89931157        1 
H      -0.79444044       0.23573497       1.90412033        1 
