32
Lattice="0.0 0.0 0.0 0.0 0.0 0.0 0.0 0.0 0.0" Properties=species:S:1:pos:R:3:Z:I:1 pbc="F F F"
C      -0.37666925      -1.04455947       0.59829703        6 
C      -0.77690664       0.47502007       0.80501841        6 
C       1.00375938      -1.35451040       0.06420903        6 
C       0.17758266       1.51695312       0.21846081        6 
O       1.95167748      -0.87201693       0.90162724        8 
O       1.25541123      -1.99655031      -0.92451560        8 
O       0.80402554       1.08818409      -0.89259540        8 
O       0.33587437       2.62584010       0.67203074        8 
C       1.69672245       2.01350530      -1.53299227        6 
C       3.31440693      -1.07083369       0.48908283        6 
C      -1.54660198      -1.62947462      -0.26477987        6 
C      -1.51015944      -0.95791136      -1.62725671        6 
C      -1.89012664       0.31171619      -1.45875801        6 
C      -2.17011172       0.51628896       0.02148640        6 
C      -2.73799017      -0.88019813       0.37273142        6 
C      -0.96680782       0.81091583       2.29256508        6 
H       1.14716371       2.88133764      -1.90142212        1 
H       3.49323623      -0.58162638      -0.47021051        1 
H      -1.87925213       1.10147397      -2.19817287        1 
H       2.13648498       1.46037844      -2.36025723        1 
H       2.46599662       2.34673440      -0.83470693        1 
H       3.92433901      -0.61925325       1.26843668        1 
H       3.53673659      -2.13477024       0.39458610        1 
H      -2.76378619       1.38982572       0.28886223        1 
H      -1.57523995      -2.71784255      -0.26554086        1 
H      -1.69663913       0.14383360       2.75292501        1 
H      -0.02158937       0.70467379       2.83053163        1 
H      -1.30553339       1.83989744       2.41494268        1 
H      -3.67933863      -1.07913795      -0.14140539        1 
H      -2.86092736      -1.06456292       1.44200634        1 
H      -1.12319065      -1.41713933      -2.52516189        1 
H      -0.40441048      -1.51355082       1.58701436        1 
