32
Lattice="0.0 0.0 0.0 0.0 0.0 0.0 0.0 0.0 0.0" Properties=species:S:1:pos:R:3:Z:I:1 pbc="F F F"
C      -0.23861594      -0.89345250       0.60694732        6 
C      -0.73309737       0.61324884       0.66401809        6 
C       1.06833675      -1.19461280      -0.08897224        6 
C       0.06213085       1.56363533      -0.24519815        6 
O       1.86384330      -1.93747373       0.72385151        8 
O       1.38839384      -0.88266668      -1.20827758        8 
O       1.04962592       2.18558641       0.44564870        8 
O      -0.06861072       1.70145175      -1.43279574        8 
C       1.94496350       2.98879624      -0.34505324        6 
C       3.12016472      -2.35505103       0.16107426        6 
C      -1.47269586      -1.67485466       0.00796161        6 
C      -1.71128875      -1.20747103      -1.41350957        6 
C      -2.16841173       0.04611432      -1.34989897        6 
C      -2.22485680       0.44255792       0.11871673        6 
C      -2.60902921      -0.92293278       0.73566990        6 
C      -0.73263041       1.13115951       2.11253854        6 
H       2.39948439       2.38283112      -1.13000391        1 
H       3.71990199      -1.48828087      -0.12117098        1 
H      -2.35157249       0.71599361      -2.17540860        1 
H       2.69765195       3.35384039       0.35072820        1 
H       1.40896249       3.82227540      -0.80200943        1 
H       3.61453776      -2.92428746       0.94533466        1 
H       2.95631020      -2.97735195      -0.72045432        1 
H      -2.85400088       1.29917411       0.36106770        1 
H      -1.39831176      -2.75072243       0.16640170        1 
H      -1.37834719       0.51595761       2.74068365        1 
H       0.27134021       1.11772534       2.53735990        1 
H      -1.09847977       2.16002150       2.15704190        1 
H      -3.59558706      -1.25641782       0.41101512        1 
H      -2.54736091      -0.97194929       1.82476916        1 
H      -1.43832012      -1.75929469      -2.30197384        1 
H      -0.11129846      -1.22640291       1.63781324        1 
