32
Lattice="0.0 0.0 0.0 0.0 0.0 0.0 0.0 0.0 0.0" Properties=species:S:1:pos:R:3:Z:I:1 pbc="F F F"
C      -0.47666868       0.56142565       0.72475826        6 
C       1.05333009       0.18747270       0.58060502        6 
C      -1.64058618      -0.16826796       0.07386528        6 
C       1.52982994      -1.14692594       0.00460408        6 
O      -2.77549933       0.21819665       0.72971779        8 
O      -1.66829794      -0.92677452      -0.85682040        8 
O       0.57079911      -2.05914377      -0.14976363        8 
O       2.70913896      -1.40588756      -0.10611980        8 
C       0.98194361      -3.36488068      -0.59012145        6 
C      -4.00781983      -0.30643136       0.20971866        6 
C      -0.49850706       2.00998772       0.02688277        6 
C      -0.25617430       1.75368722      -1.45621467        6 
C       1.02259175       1.38895059      -1.59444886        6 
C       1.65368890       1.40881980      -0.21322803        6 
C       0.87448784       2.57942887       0.42514027        6 
C       1.65092631       0.13277653       2.02135598        6 
H       1.50182384      -3.29652850      -1.54650610        1 
H      -4.01172658      -1.39676178       0.25728292        1 
H       1.50901420       1.02624640      -2.49016337        1 
H       0.05995487      -3.93176600      -0.69696116        1 
H       1.64180395      -3.82779905       0.14580667        1 
H      -4.78994990       0.10577819       0.84419052        1 
H      -4.15328177       0.00430076      -0.82661142        1 
H       2.74058691       1.43147670      -0.17485625        1 
H      -1.38544897       2.58522068       0.28548025        1 
H       1.37705877       1.01284806       2.60261944        1 
H       1.27306930      -0.74447934       2.55454362        1 
H       2.73783549       0.06278472       1.97475281        1 
H       1.08115683       3.52835041      -0.07198782        1 
H       1.01793205       2.69469387       1.49999126        1 
H      -1.02554677       1.73918954      -2.21650744        1 
H      -0.72770642       0.67331439       1.77793385        1 
