32
Lattice="0.0 0.0 0.0 0.0 0.0 0.0 0.0 0.0 0.0" Properties=species:S:1:pos:R:3:Z:I:1 pbc="F F F"
C      -0.80928764       0.53034883       0.86224472        6 
C       0.74386943       0.62106864       0.52521155        6 
C      -1.63938816      -0.73783448       0.77500993        6 
C       1.39122108      -0.56569436      -0.19687690        6 
O      -1.70101599      -1.28722706      -0.44157534        8 
O      -2.30435864      -1.13033963       1.71119262        8 
O       2.65919545      -0.77796529       0.24154011        8 
O       0.90954639      -1.22252972      -1.08332326        8 
C       3.37715878      -1.83499891      -0.41773518        6 
C      -2.53487983      -2.44908027      -0.58073915        6 
C      -1.42917896       1.69873755      -0.01533207        6 
C      -1.23799756       1.35604162      -1.48087187        6 
C       0.06483414       1.46914811      -1.75328724        6 
C       0.76614440       1.87622519      -0.46976253        6 
C      -0.32990240       2.76637566       0.15790451        6 
C       1.51097610       0.94705786       1.82386924        6 
H       2.86440083      -2.78858750      -0.28127261        1 
H      -3.57824893      -2.20018838      -0.37762236        1 
H       0.56526625       1.19116679      -2.67008305        1 
H       4.35743068      -1.85643039       0.05374290        1 
H       3.46756462      -1.63036161      -1.48586514        1 
H      -2.40721161      -2.77012825      -1.61208152        1 
H      -2.21494684      -3.23323358       0.10701188        1 
H       1.76557323       2.29928914      -0.57076828        1 
H      -2.43916209       1.96175174       0.29820166        1 
H       1.05394777       1.79473986       2.33511751        1 
H       1.49173187       0.09622457       2.50891928        1 
H       2.55342445       1.18899096       1.61932840        1 
H      -0.52248282       3.65742499      -0.44148166        1 
H      -0.14713720       3.05747720       1.19335087        1 
H      -2.00960711       0.97117592      -2.13182661        1 
H      -0.91496260       0.81568258       1.90802507        1 
