32
Lattice="0.0 0.0 0.0 0.0 0.0 0.0 0.0 0.0 0.0" Properties=species:S:1:pos:R:3:Z:I:1 pbc="F F F"
C      -0.69738747       0.52104444       0.63684744        6 
C       0.88176648       0.42991607       0.62721003        6 
C      -1.51720878      -0.60237483       0.04798424        6 
C       1.46784443      -0.67997821      -0.26393740        6 
O      -2.73937407      -0.61722560       0.64238956        8 
O      -1.21513903      -1.36389185      -0.83499047        8 
O       1.85184279      -1.74752407       0.47571137        8 
O       1.53125733      -0.67933440      -1.46506909        8 
C       2.27670819      -2.89916085      -0.27524048        6 
C      -3.67624246      -1.58122803       0.12995647        6 
C      -1.01132038       1.92959243      -0.01016433        6 
C      -0.56100927       1.90609160      -1.45617844        6 
C       0.77416831       1.86982559      -1.45609560        6 
C       1.23768278       1.85585617      -0.00546509        6 
C       0.13717242       2.74445811       0.62072561        6 
C       1.42361739       0.31267736       2.06210986        6 
H       1.46913088      -3.23979629      -0.92493395        1 
H      -3.28482945      -2.59338827       0.24362062        1 
H       1.42286696       1.75244879      -2.30996140        1 
H       2.52255828      -3.65496590       0.46786979        1 
H       3.15017040      -2.66011952      -0.88400760        1 
H      -4.57978191      -1.45108607       0.72177853        1 
H      -3.87872591      -1.39430186      -0.92611224        1 
H       2.27518670       2.14115182       0.16944445        1 
H      -2.03168896       2.25602601       0.18642486        1 
H       1.10009040       1.16022438       2.66801865        1 
H       1.07324489      -0.60278079       2.54002992        1 
H       2.51556078       0.29061132       2.06473320        1 
H       0.17239595       3.76666774       0.24182569        1 
H       0.12355746       2.75986129       1.71236817        1 
H      -1.21791629       1.81013030      -2.30996809        1 
H      -1.01028464       0.58164602       1.68181683        1 
