32
Lattice="0.0 0.0 0.0 0.0 0.0 0.0 0.0 0.0 0.0" Properties=species:S:1:pos:R:3:Z:I:1 pbc="F F F"
C      -0.59904645       0.38457865       0.81695908        6 
C       0.94028575       0.56470030       0.53670270        6 
C      -1.36072568      -0.72582668       0.11012447        6 
C       1.66355156      -0.56353048      -0.19378996        6 
O      -2.67956364      -0.60797417       0.41329861        8 
O      -0.93769859      -1.60632678      -0.59351012        8 
O       1.52621600      -1.73663866       0.44985386        8 
O       2.43293899      -0.39532800      -1.11056675        8 
C       2.11935523      -2.88278761      -0.18019553        6 
C      -3.55481456      -1.57972086      -0.18509147        6 
C      -1.18964695       1.76257046       0.25737525        6 
C      -1.06341568       1.64896667      -1.25826371        6 
C       0.23797368       1.72159426      -1.55542120        6 
C       0.99626309       1.91965842      -0.25195321        6 
C      -0.04404550       2.74842977       0.54021841        6 
C       1.70786818       0.68095421       1.88369020        6 
H       1.63483669      -3.06597090      -1.14061812        1 
H      -3.28894929      -2.58744886       0.13834886        1 
H       0.70661024       1.56342896      -2.51614641        1 
H       1.93761601      -3.71377490       0.49817484        1 
H       3.18953411      -2.73304895      -0.33003155        1 
H      -4.55395550      -1.31929360       0.15803088        1 
H      -3.49791469      -1.52751875      -1.27369260        1 
H       2.00643352       2.31376635      -0.34136706        1 
H      -2.17765120       1.98978648       0.64952352        1 
H       1.30435292       1.48042989       2.50446051        1 
H       1.64011792      -0.25258598       2.44342252        1 
H       2.76407073       0.89442121       1.69817018        1 
H      -0.22473511       3.72302860       0.08441332        1 
H       0.18302413       2.88208630       1.59856936        1 
H      -1.87906328       1.41814385      -1.93115517        1 
H      -0.79612274       0.29027768       1.88642434        1 
