32
Lattice="0.0 0.0 0.0 0.0 0.0 0.0 0.0 0.0 0.0" Properties=species:S:1:pos:R:3:Z:I:1 pbc="F F F"
C      -0.67773340       0.23185933       0.87099167        6 
C       0.73131470       0.85986150       0.48179514        6 
C      -0.99223584      -1.16968816       0.37061600        6 
C       1.62712083      -0.04459316      -0.37331309        6 
O      -2.31812219      -1.31765435       0.15028150        8 
O      -0.21311753      -2.08470213       0.26508056        8 
O       2.33821431      -0.90178069       0.37863579        8 
O       1.75400453       0.03792360      -1.57215299        8 
C       3.08296969      -1.90088618      -0.33637778        6 
C      -2.74783353      -2.63114404      -0.25258490        6 
C      -1.70048216       1.31045434       0.33977092        6 
C      -1.64844434       1.22904790      -1.18018974        6 
C      -0.46469405       1.71565031      -1.56372710        6 
C       0.28480147       2.14759295      -0.30988653        6 
C      -0.90955832       2.61539538       0.55759497        6 
C       1.51829613       1.24237143       1.75621065        6 
H       2.39397961      -2.54960521      -0.87928888        1 
H      -2.49306560      -3.36831856       0.51048853        1 
H      -0.04579570       1.72227599      -2.55835087        1 
H       3.61514912      -2.46616767       0.42569204        1 
H       3.78166930      -1.43778106      -1.03413533        1 
H      -3.82685000      -2.55831000      -0.37082236        1 
H      -2.27609676      -2.91321348      -1.19495646        1 
H       1.10438789       2.84883274      -0.46294162        1 
H      -2.68488507       1.23057764       0.79524966        1 
H       0.94555717       1.92580535       2.38363637        1 
H       1.75926534       0.35602476       2.34267557        1 
H       2.45799506       1.73443822       1.49149247        1 
H      -1.41737679       3.47876012       0.12577883        1 
H      -0.66679157       2.82314699       1.60053443        1 
H      -2.39832525       0.75365965      -1.79698526        1 
H      -0.73740184       0.15945769       1.96247283        1 
