32
Lattice="0.0 0.0 0.0 0.0 0.0 0.0 0.0 0.0 0.0" Properties=species:S:1:pos:R:3:Z:I:1 pbc="F F F"
C      -0.64940218       0.31246450       0.82737239        6 
C       0.85053615       0.71936881       0.53171092        6 
C      -1.19430447      -0.95882938       0.19749963        6 
C       1.66543558      -0.29563331      -0.27519699        6 
O      -2.54377894      -0.97782470       0.31743254        8 
O      -0.57624772      -1.87019235      -0.29228098        8 
O       2.02866437      -1.34814089       0.48083731        8 
O       2.02724960      -0.14381880      -1.41695528        8 
C       2.64567602      -2.44194001      -0.21780608        6 
C      -3.20923340      -2.14379598      -0.20004348        6 
C      -1.45943659       1.56304605       0.27846618        6 
C      -1.33995856       1.48037233      -1.23818215        6 
C      -0.07331154       1.76922478      -1.55266220        6 
C       0.66527193       2.07248164      -0.25701954        6 
C      -0.48198274       2.71892260       0.55620089        6 
C       1.61116640       0.95342815       1.85939639        6 
H       1.93516779      -2.86182903      -0.93123130        1 
H      -2.85777878      -3.04318380       0.30800807        1 
H       0.39679379       1.70232510      -2.52206977        1 
H       2.89352513      -3.17343209       0.54862340        1 
H       3.54403799      -2.11133451      -0.74062891        1 
H      -4.26748629      -1.98290548      -0.00536768        1 
H      -3.02714637      -2.24283452      -1.27135937        1 
H       1.59656710       2.62803679      -0.35710470        1 
H      -2.46522338       1.63322442       0.68514148        1 
H       1.10495492       1.69012747       2.48303354        1 
H       1.69252999       0.02427249       2.42274978        1 
H       2.62267747       1.31831859       1.65966475        1 
H      -0.82300712       3.65571431       0.11288032        1 
H      -0.26428694       2.87950610       1.61262663        1 
H      -2.11927445       1.12711207      -1.90048000        1 
H      -0.79836908       0.20670696       1.90598500        1 
