32
Lattice="0.0 0.0 0.0 0.0 0.0 0.0 0.0 0.0 0.0" Properties=species:S:1:pos:R:3:Z:I:1 pbc="F F F"
C      -0.81634757      -0.39977831      -0.59674471        6 
C       0.76256474      -0.27183141      -0.66607446        6 
C      -1.74019074       0.60675442       0.06241332        6 
C       1.45218309       0.81062972       0.17004514        6 
O      -2.84431813       0.74550779      -0.73349961        8 
O      -1.63025177       1.17938900       1.11138215        8 
O       2.64164010       1.16215155      -0.39506837        8 
O       1.08458646       1.27360971       1.21503175        8 
C       3.41844559       2.11827467       0.34487506        6 
C      -3.88530145       1.58661427      -0.21032099        6 
C      -1.03356485      -1.82454659       0.07347736        6 
C      -0.50563437      -1.74956226       1.49425279        6 
C       0.82677900      -1.67748667       1.42078831        6 
C       1.20610861      -1.68723885      -0.05124298        6 
C       0.10249299      -2.61219297      -0.60760009        6 
C       1.18835530      -0.16029140      -2.14628930        6 
H       2.85760801       3.04429993       0.48044611        1 
H      -3.51169587       2.59695312      -0.03672103        1 
H       1.51373857      -1.49371840       2.23489982        1 
H       4.31004314       2.29355079      -0.25394507        1 
H       3.68623539       1.71995386       1.32511557        1 
H      -4.66545726       1.59111830      -0.96899720        1 
H      -4.26876358       1.18427471       0.72951119        1 
H       2.24109342      -1.92943028      -0.28958817        1 
H      -2.05073945      -2.19262448      -0.05686899        1 
H       0.70142215      -0.92975324      -2.74626564        1 
H       0.90220711       0.81172421      -2.55680614        1 
H       2.26636487      -0.26594783      -2.25842227        1 
H       0.19031956      -3.62930071      -0.22291192        1 
H       0.03374990      -2.63959939      -1.69642807        1 
H      -1.11841118      -1.63728280       2.37753196        1 
H      -1.16816449      -0.47589210      -1.62458373        1 
