32
Lattice="0.0 0.0 0.0 0.0 0.0 0.0 0.0 0.0 0.0" Properties=species:S:1:pos:R:3:Z:I:1 pbc="F F F"
C      -0.30060820      -0.89836772       0.64978719        6 
C      -0.56819122       0.67070843       0.64790416        6 
C       0.89408423      -1.45771656      -0.09290961        6 
C       0.32920769       1.49014139      -0.29140662        6 
O       1.73830696      -2.06591052       0.78500145        8 
O       1.10642177      -1.41486528      -1.27649630        8 
O       1.05602828       2.41702409       0.38330293        8 
O       0.41638507       1.35874731      -1.48420671        8 
C       1.92801018       3.22798980      -0.42320839        6 
C       2.90595560      -2.67524510       0.20666533        6 
C      -1.66280063      -1.50077730       0.11520925        6 
C      -1.84336673      -1.07398215      -1.32860673        6 
C      -2.09717109       0.23752844      -1.32732699        6 
C      -2.07903997       0.70786003       0.11638901        6 
C      -2.65991023      -0.54889519       0.80649473        6 
C      -0.48880116       1.20739081       2.08886229        6 
H       2.65035360       2.60420596      -0.95211252        1 
H       3.51158633      -1.92855675      -0.30958139        1 
H      -2.16848753       0.88676211      -2.18713824        1 
H       2.43141357       3.89370463       0.27471323        1 
H       1.35264845       3.80024928      -1.15304169        1 
H       3.45506878      -3.10341337       1.04262811        1 
H       2.61986032      -3.45338744      -0.50327359        1 
H      -2.55914809       1.66435416       0.32408285        1 
H      -1.75696795      -2.56608549       0.32651429        1 
H      -1.15538430       0.64627107       2.74404900        1 
H       0.52417116       1.12113438       2.48451335        1 
H      -0.77413677       2.25988482       2.13211155        1 
H      -3.68936780      -0.74011862       0.50138261        1 
H      -2.59682487      -0.54865135       1.89594586        1 
H      -1.65950015      -1.70223703      -2.18786980        1 
H      -0.17894393      -1.20001209       1.68959767        1 
