32
Lattice="0.0 0.0 0.0 0.0 0.0 0.0 0.0 0.0 0.0" Properties=species:S:1:pos:R:3:Z:I:1 pbc="F F F"
C       1.03925000       0.55063583      -0.74319321        6 
C      -0.52143454       0.78510884      -0.68233532        6 
C       1.64477964      -0.81009474      -0.47386448        6 
C      -1.34963654      -0.47847918      -0.47202982        6 
O       0.98160599      -1.52301463       0.45328200        8 
O       2.68970882      -1.17077481      -0.96481097        8 
O      -2.23786795      -0.35919787       0.53544100        8 
O      -1.29039297      -1.45092400      -1.18514451        8 
C      -3.10486318      -1.48864498       0.74476972        6 
C       1.49252431      -2.83711686       0.73565307        6 
C       1.57777166       1.59197513       0.33225170        6 
C       1.11522922       1.11417579       1.70173762        6 
C      -0.20786957       1.28984076       1.75935066        6 
C      -0.65199594       1.89073068       0.43400888        6 
C       0.59171461       2.75666160       0.11160353        6 
C      -1.03014000       1.32115937      -2.04787855        6 
H      -3.69626982      -1.68779643      -0.15015526        1 
H       2.52009896      -2.78217411       1.09770068        1 
H      -0.88091731       0.96733915       2.54040088        1 
H      -3.74870331      -1.21020062       1.57643836        1 
H      -2.51922731      -2.37537238       0.99137108        1 
H       0.83580743      -3.24439447       1.50147235        1 
H       1.45710633      -3.45299186      -0.16404998        1 
H      -1.62340881       2.38254783       0.43015782        1 
H       2.64163661       1.79261317       0.21638682        1 
H      -0.49352726       2.22256600      -2.34363474        1 
H      -0.89298626       0.56559002      -2.82284795        1 
H      -2.09493855       1.56439330      -1.98782639        1 
H       0.73244344       3.55995763       0.83553558        1 
H       0.61175264       3.16966822      -0.89814965        1 
H       1.74265233       0.61190266       2.42544782        1 
H       1.41569972       0.83730940      -1.72532376        1 
