32
Lattice="0.0 0.0 0.0 0.0 0.0 0.0 0.0 0.0 0.0" Properties=species:S:1:pos:R:3:Z:I:1 pbc="F F F"
C       0.11813939       1.20850410       0.42603085        6 
C       0.67936129      -0.20859534       0.91859015        6 
C      -1.18293767       1.17395866      -0.34596753        6 
C      -0.17836880      -1.38832428       0.43613984        6 
O      -2.22186612       1.03889537       0.50103917        8 
O      -1.30947749       1.29139494      -1.54172366        8 
O       0.33117874      -2.05056406      -0.61735753        8 
O      -1.20573422      -1.72743207       0.97518147        8 
C      -0.45703652      -3.14501799      -1.12026990        6 
C      -3.52194023       0.89363485      -0.09574910        6 
C       1.32492853       1.83888816      -0.33652959        6 
C       1.59708649       1.01655417      -1.58497030        6 
C       2.10063840      -0.15375041      -1.18747348        6 
C       2.15275747      -0.14571012       0.33543568        6 
C       2.48485990       1.35106669       0.56180345        6 
C       0.67569850      -0.29432134       2.45643727        6 
H      -0.57439787      -3.91453667      -0.35582359        1 
H      -3.54643998       0.01140974      -0.73706297        1 
H       2.33326875      -1.00895997      -1.80338058        1 
H       0.09672664      -3.52992793      -1.97380621        1 
H      -1.44160211      -2.79183060      -1.42966790        1 
H      -4.21046384       0.77418354       0.73744878        1 
H      -3.77559938       1.77674813      -0.68448274        1 
H       2.81363072      -0.88071474       0.79511404        1 
H       1.21941955       2.91357766      -0.48223266        1 
H       1.25364553       0.51925213       2.89501810        1 
H      -0.34648216      -0.24507739       2.83167228        1 
H       1.11368009      -1.24036972       2.78696239        1 
H       3.46178544       1.61804002       0.15752750        1 
H       2.41606273       1.68443583       1.59951016        1 
H       1.32204297       1.31073271      -2.58696374        1 
H      -0.09211708       1.79213157       1.32571585        1 
