32
Lattice="0.0 0.0 0.0 0.0 0.0 0.0 0.0 0.0 0.0" Properties=species:S:1:pos:R:3:Z:I:1 pbc="F F F"
C      -0.20650593      -1.06756563       0.55754134        6 
C      -0.81893152       0.37951184       0.80940371        6 
C       1.17391970      -1.20981157      -0.05452588        6 
C      -0.07645114       1.60609823       0.27586348        6 
O       2.11605425      -1.13535405       0.91843224        8 
O       1.44533618      -1.34681469      -1.21995473        8 
O       0.77710764       1.32682656      -0.71713684        8 
O      -0.26232472       2.72723603       0.69077392        8 
C       1.44569409       2.43716682      -1.33861266        6 
C       3.48245664      -1.17001850       0.47125174        6 
C      -1.31079667      -1.76319333      -0.32386286        6 
C      -1.37826024      -1.03195527      -1.65645893        6 
C      -1.93159665       0.16306488      -1.43179232        6 
C      -2.22030698       0.25854339       0.05649749        6 
C      -2.58593049      -1.21390658       0.35060328        6 
C      -1.02432176       0.60978124       2.32004341        6 
H       0.71880641       3.09616094      -1.81660752        1 
H       3.67743444      -0.34159055      -0.21198719        1 
H      -2.04386672       0.97703173      -2.13580778        1 
H       2.10389138       1.99210760      -2.08145483        1 
H       2.01458588       3.00547390      -0.60148631        1 
H       4.08646791      -1.07556978       1.37115399        1 
H       3.69672423      -2.11114871      -0.03774439        1 
H      -2.91789181       1.03327710       0.37179254        1 
H      -1.19499744      -2.84541333      -0.37574257        1 
H      -1.62086903      -0.19117489       2.75800191        1 
H      -0.06205121       0.63388046       2.83850144        1 
H      -1.52539285       1.56098705       2.49885230        1 
H      -3.49522191      -1.51825260      -0.16953938        1 
H      -2.67265538      -1.46019983       1.41083746        1 
H      -0.94667753      -1.39559806      -2.57670352        1 
H      -0.16010085      -1.56309265       1.52837299        1 
