32
Lattice="0.0 0.0 0.0 0.0 0.0 0.0 0.0 0.0 0.0" Properties=species:S:1:pos:R:3:Z:I:1 pbc="F F F"
C       0.36512224      -0.87328629       0.61672992        6 
C      -1.02924386      -0.15894729       0.72932297        6 
C       1.61894256      -0.03056094       0.64929553        6 
C      -1.17416900       1.25826797       0.16594803        6 
O       2.64652577      -0.66483628       0.03885427        8 
O       1.72996932       1.04473849       1.18330180        8 
O      -0.19466257       1.62237191      -0.67402025        8 
O      -2.15860851       1.93568729       0.35909392        8 
C      -0.35684960       2.88841317      -1.33228926        6 
C       3.91299607       0.01830872       0.07093375        6 
C       0.16882606      -1.97554087      -0.47897302        6 
C      -0.19173835      -1.31268208      -1.79576101        6 
C      -1.42463878      -0.81275920      -1.67138780        6 
C      -1.89575205      -1.09779361      -0.25203703        6 
C      -1.22916276      -2.47484401      -0.03535847        6 
C      -1.57635776      -0.17618962       2.16137074        6 
H      -1.25987830       2.88573285      -1.94572155        1 
H       4.23863759       0.17366362       1.10068384        1 
H      -1.95708727      -0.19663804      -2.38416139        1 
H       0.52842045       3.00599556      -1.95355374        1 
H      -0.42194009       3.69373560      -0.59988430        1 
H       4.60698221      -0.63252013      -0.45665219        1 
H       3.83579857       0.98483819      -0.42920683        1 
H      -2.96455746      -1.00559305      -0.06683587        1 
H       0.97801860      -2.70193571      -0.50822801        1 
H      -1.66065462      -1.20132879       2.52805544        1 
H      -0.90735199       0.37236559       2.82944551        1 
H      -2.55942176       0.29286747       2.20213149        1 
H      -1.63608351      -3.23554933      -0.70325594        1 
H      -1.26268605      -2.83651737       0.99514651        1 
H       0.48455934      -1.19456176      -2.63154280        1 
H       0.47320958      -1.43567148       1.55566754        1 
