32
Lattice="0.0 0.0 0.0 0.0 0.0 0.0 0.0 0.0 0.0" Properties=species:S:1:pos:R:3:Z:I:1 pbc="F F F"
C       0.00873605       1.20413877       0.45835830        6 
C       0.66909977      -0.18754610       0.89535635        6 
C      -1.29704375       1.15690224      -0.30579122        6 
C      -0.06934776      -1.42856006       0.37270476        6 
O      -2.30134468       0.77455732       0.50322426        8 
O      -1.45844727       1.49516966      -1.45499292        8 
O       0.58953852      -2.08314454      -0.60327094        8 
O      -1.10989973      -1.83597168       0.83116642        8 
C      -0.05159578      -3.26499130      -1.11714402        6 
C      -3.59872830       0.63815474      -0.10092714        6 
C       1.16236159       1.95162493      -0.27521008        6 
C       1.48042304       1.19970317      -1.55655223        6 
C       2.06659967       0.05259416      -1.20708808        6 
C       2.13402667       0.00729430       0.31608782        6 
C       2.35825257       1.51228023       0.59945621        6 
C       0.66867500      -0.33365271       2.42946515        6 
H      -0.21093027      -3.99165329      -0.31936038        1 
H      -3.56486388      -0.09104819      -0.91178163        1 
H       2.35471500      -0.75977669      -1.85651518        1 
H       0.62983051      -3.65951756      -1.86787491        1 
H      -1.01176765      -3.00993337      -1.56785801        1 
H      -4.25205587       0.28866705       0.69508294        1 
H      -3.94243921       1.59752523      -0.49155623        1 
H       2.84742309      -0.69791015       0.74187080        1 
H       0.97630248       3.01993126      -0.37811474        1 
H       1.16857020       0.51062781       2.90557759        1 
H      -0.35650219      -0.38941940       2.79670835        1 
H       1.18734126      -1.24920854       2.72806135        1 
H       3.31198835       1.86693252       0.20664536        1 
H       2.26958875       1.79806032       1.64969407        1 
H       1.17928023       1.51492288      -2.54472300        1 
H      -0.23053250       1.73408040       1.38483338        1 
