32
Lattice="0.0 0.0 0.0 0.0 0.0 0.0 0.0 0.0 0.0" Properties=species:S:1:pos:R:3:Z:I:1 pbc="F F F"
C       0.58820835      -0.83829355       0.51628942        6 
C      -0.86515903      -0.29776720       0.85086786        6 
C       1.61204909       0.13526659      -0.02008052        6 
C      -1.08325816       1.19471237       0.53347554        6 
O       2.84039604      -0.17342552       0.46058033        8 
O       1.42245181       1.03612455      -0.80021572        8 
O      -1.42004798       1.44376866      -0.73774164        8 
O      -1.05161174       2.05826194       1.38060852        8 
C      -1.52217866       2.82658639      -1.11204594        6 
C       3.92631534       0.63978463      -0.02138294        6 
C       0.32323497      -2.04814994      -0.46785786        6 
C      -0.23921511      -1.49960940      -1.76439204        6 
C      -1.47285088      -1.05894283      -1.50459205        6 
C      -1.75152618      -1.29195866      -0.02627157        6 
C      -0.96679588      -2.61513252       0.16441486        6 
C      -1.16370107      -0.47179066       2.35066069        6 
H      -2.27425479       3.33629119      -0.50824217        1 
H       3.76738875       1.68478189       0.24881051        1 
H      -2.13295132      -0.53266943      -2.17665868        1 
H      -1.80893034       2.81979453      -2.16178306        1 
H      -0.55492763       3.31432751      -0.98514166        1 
H       4.81805048       0.24938861       0.46389796        1 
H       4.01227995       0.55985884      -1.10633081        1 
H      -2.80033526      -1.28446150       0.27031552        1 
H       1.18032239      -2.71611430      -0.54748480        1 
H      -1.01846782      -1.50522353       2.66525463        1 
H      -0.51203253       0.16784384       2.94641213        1 
H      -2.19490705      -0.18724274       2.57233673        1 
H      -1.38770504      -3.42915386      -0.42712500        1 
H      -0.85269101      -2.93923149       1.19996558        1 
H       0.31514392      -1.39087072      -2.68645071        1 
H       1.01301478      -1.25067003       1.43295635        1 
