32
Lattice="0.0 0.0 0.0 0.0 0.0 0.0 0.0 0.0 0.0" Properties=species:S:1:pos:R:3:Z:I:1 pbc="F F F"
C       1.04518742       0.19085203      -0.72372755        6 
C      -0.43709049       0.74635877      -0.61189018        6 
C       1.49768866      -1.24711712      -0.54582932        6 
C      -1.49164468      -0.06524519       0.15144996        6 
O       0.77049227      -1.99777630       0.28268288        8 
O       2.48321260      -1.65789066      -1.12153817        8 
O      -2.70723768       0.03680813      -0.45106098        8 
O      -1.34286933      -0.68011166       1.17415794        8 
C      -3.79281398      -0.63221290       0.21070170        6 
C       1.20956080      -3.35430794       0.47428691        6 
C       1.89654887       1.19613167       0.15279243        6 
C       1.44433705       1.08060084       1.59568635        6 
C       0.22018947       1.61071694       1.67376277        6 
C      -0.17302044       2.06665022       0.27543338        6 
C       1.20670377       2.51548509      -0.25091897        6 
C      -0.93958887       1.12576816      -2.01861938        6 
H      -3.59998217      -1.70440001       0.27482291        1 
H       2.21954275      -3.37533256       0.88625242        1 
H      -0.44241928       1.59792870       2.52727235        1 
H      -4.66983129      -0.43773833      -0.40360774        1 
H      -3.93353074      -0.23564013       1.21759878        1 
H       0.49811661      -3.78559624       1.17489516        1 
H       1.19894732      -3.89704600      -0.47251410        1 
H      -0.99906078       2.77422391       0.20535085        1 
H       2.96388627       1.10173005      -0.04009665        1 
H      -0.20261794       1.74411588      -2.53244494        1 
H      -1.10647361       0.23274090      -2.62624756        1 
H      -1.87823728       1.67683979      -1.97303068        1 
H       1.59320344       3.37268058       0.30148777        1 
H       1.24096766       2.72437550      -1.32145131        1 
H       1.97925133       0.55373996       2.37418458        1 
H       1.34966470       0.38133177      -1.75483451        1 
