32
Lattice="0.0 0.0 0.0 0.0 0.0 0.0 0.0 0.0 0.0" Properties=species:S:1:pos:R:3:Z:I:1 pbc="F F F"
C      -0.57811188       0.70922157      -0.91525961        6 
C      -0.77369818      -0.80536630      -0.48309494        6 
C       0.79490408       1.32594630      -0.75295967        6 
C       0.36403814      -1.43013277       0.32034444        6 
O       1.14635239       1.50115619       0.53822290        8 
O       1.50243432       1.64424326      -1.67883078        8 
O       1.55255110      -1.25328598      -0.29280411        8 
O       0.22893157      -2.09906709       1.31554465        8 
C       2.69286752      -1.86444969       0.33385045        6 
C       2.46958503       2.01162811       0.76664178        6 
C      -1.75976103       1.43362188      -0.16464685        6 
C      -1.55849126       1.29444739       1.33744613        6 
C      -1.77181626       0.01495895       1.65727041        6 
C      -2.09958590      -0.72807099       0.37054018        6 
C      -2.86986534       0.37980668      -0.38664246        6 
C      -0.94521505      -1.70818324      -1.72574380        6 
H       2.82518435      -1.47416236       1.34420350        1 
H       2.59036503       2.99306903       0.30579318        1 
H      -1.62025944      -0.46028867       2.61521360        1 
H       3.54148039      -1.60484903      -0.29521744        1 
H       2.56635132      -2.94712718       0.38215175        1 
H       2.57207651       2.07915912       1.84770933        1 
H       3.21294735       1.32862164       0.35151213        1 
H      -2.58318121      -1.69716513       0.48267244        1 
H      -1.94148752       2.44074446      -0.53933075        1 
H      -1.80613705      -1.39038204      -2.31599868        1 
H      -0.05845609      -1.66223028      -2.35999784        1 
H      -1.10666036      -2.74704839      -1.42497314        1 
H      -3.80409820       0.64476477       0.10964683        1 
H      -3.06585173       0.16073037      -1.43926819        1 
H      -1.20072859       2.08215618       1.98469222        1 
H      -0.76755094       0.77556703      -1.98741411        1 
