32
Lattice="0.0 0.0 0.0 0.0 0.0 0.0 0.0 0.0 0.0" Properties=species:S:1:pos:R:3:Z:I:1 pbc="F F F"
C       0.72140012      -0.72666435      -0.80357414        6 
C       0.46153086       0.82718604      -0.56628430        6 
C      -0.28028114      -1.67622054      -0.18208598        6 
C      -0.73264191       1.07549930       0.36396039        6 
O      -1.51302963      -1.46237350      -0.70241501        8 
O      -0.05196966      -2.51353986       0.65249590        8 
O      -1.74037348       1.73024264      -0.25185282        8 
O      -0.79475382       0.75291845       1.52621261        8 
C      -2.91285080       1.96568995       0.54511929        6 
C      -2.58344825      -2.23666909      -0.13094366        6 
C       2.18723579      -0.94026591      -0.28196811        6 
C       2.17916189      -0.74534615       1.22618256        6 
C       1.96624850       0.55229443       1.45866772        6 
C       1.83683617       1.24847993       0.11145691        6 
C       2.82926010       0.39339173      -0.71761854        6 
C       0.26137199       1.55136833      -1.91115550        6 
H      -3.34140340       1.01895625       0.87868374        1 
H      -2.65786826      -2.04131425       0.94004200        1 
H       1.79002930       1.02500987       2.41347539        1 
H      -3.60619181       2.49123647      -0.10815012        1 
H      -2.66991294       2.57341195       1.41800619        1 
H      -3.48442722      -1.91032945      -0.64625651        1 
H      -2.41571563      -3.30266664      -0.29199268        1 
H       1.98136706       2.32926514       0.10752519        1 
H       2.63788655      -1.86156664      -0.64863683        1 
H       1.11246445       1.38065616      -2.57053622        1 
H      -0.63718123       1.19179726      -2.41342357        1 
H       0.15455416       2.62789340      -1.76407310        1 
H       3.85380022       0.49540677      -0.35890227        1 
H       2.80195338       0.57410360      -1.79369552        1 
H       2.20297656      -1.54819912       1.94749461        1 
H       0.67740086      -0.90283532      -1.88247647        1 
