32
Lattice="0.0 0.0 0.0 0.0 0.0 0.0 0.0 0.0 0.0" Properties=species:S:1:pos:R:3:Z:I:1 pbc="F F F"
C      -0.72325352       0.51178554       0.81280791        6 
C       0.85519505       0.56577770       0.71590923        6 
C      -1.44286464      -0.71836574       0.27652024        6 
C       1.53674907      -0.77611761       0.41939274        6 
O      -2.75681790      -0.42625640       0.09693122        8 
O      -0.99820318      -1.82198495       0.09815355        8 
O       2.07211796      -0.82901291      -0.81766492        8 
O       1.60337374      -1.68691931       1.20460152        8 
C       2.63642549      -2.09826856      -1.19622530        6 
C      -3.58755436      -1.51099979      -0.35223713        6 
C      -1.15120476       1.77051417      -0.06032345        6 
C      -0.88825451       1.34848700      -1.50180872        6 
C       0.43752234       1.29081246      -1.66069179        6 
C       1.07989602       1.70691386      -0.34404468        6 
C       0.02902652       2.73950221       0.13871389        6 
C       1.43960914       0.97186886       2.09432019        6 
H       3.46999580      -2.35887322      -0.54222420        1 
H      -3.57361486      -2.32981608       0.36894507        1 
H       0.98254453       0.92922241      -2.51995111        1 
H       2.97925946      -1.96927550      -2.22093726        1 
H       1.87333130      -2.87533992      -1.13693684        1 
H      -4.58839290      -1.09283275      -0.43753269        1 
H      -3.24310224      -1.88106247      -1.31946670        1 
H       2.11827227       2.03069525      -0.40038093        1 
H      -2.15216629       2.12895676       0.16541018        1 
H       0.95384550       1.85672718       2.50380472        1 
H       1.31437067       0.15228213       2.80222246        1 
H       2.50925377       1.18252289       2.00459386        1 
H      -0.03693423       3.59884754      -0.53020898        1 
H       0.16294681       3.09087068       1.16146996        1 
H      -1.65088974       1.03948113      -2.20404252        1 
H      -1.04061404       0.62742337       1.85236187        1 
