32
Lattice="0.0 0.0 0.0 0.0 0.0 0.0 0.0 0.0 0.0" Properties=species:S:1:pos:R:3:Z:I:1 pbc="F F F"
C      -0.49015778       0.63293015       0.68144703        6 
C       0.98390474       0.06417659       0.78935024        6 
C      -1.76466898      -0.13853154       0.37105420        6 
C       1.42423430      -1.27249744       0.18472072        6 
O      -2.79854439       0.61953470       0.85218475        8 
O      -1.95905466      -1.17842728      -0.19637748        8 
O       0.53306703      -1.85736514      -0.60742722        8 
O       2.54449108      -1.70454222       0.35961217        8 
C       0.93619827      -3.07163925      -1.26113721        6 
C      -4.11851724       0.11572193       0.59238548        6 
C      -0.33816619       1.86713782      -0.29962396        6 
C       0.11877845       1.33819233      -1.64701381        6 
C       1.38859846       0.94218371      -1.51258565        6 
C       1.78455837       1.16586159      -0.06104468        6 
C       0.98598194       2.44978770       0.23690942        6 
C       1.43359073       0.06288483       2.26356306        6 
H       1.74043453      -2.87062545      -1.97155910        1 
H      -4.25718438      -0.86004141       1.06099660        1 
H       1.99351155       0.42317041      -2.24441883        1 
H       0.04502772      -3.42294270      -1.77623546        1 
H       1.27777752      -3.80631440      -0.53102865        1 
H      -4.79898269       0.84640342       1.02538367        1 
H      -4.29075308       0.02228323      -0.48144797        1 
H       2.84942806       1.15204006       0.16128812        1 
H      -1.21499609       2.51155888      -0.29493564        1 
H       1.32608388       1.05548863       2.70444584        1 
H       0.82514110      -0.63213289       2.85020641        1 
H       2.47518880      -0.24683864       2.34259365        1 
H       1.33771979       3.29527010      -0.35604032        1 
H       0.94921323       2.73153155       1.29125531        1 
H      -0.51892839       1.21152571      -2.51184183        1 
H      -0.70484554       1.06960212       1.65803510        1 
