32
Lattice="0.0 0.0 0.0 0.0 0.0 0.0 0.0 0.0 0.0" Properties=species:S:1:pos:R:3:Z:I:1 pbc="F F F"
C      -0.86877915      -0.37736401      -0.48994646        6 
C       0.68669888      -0.27148942      -0.69984837        6 
C      -1.76677426       0.78410694      -0.10123109        6 
C       1.46480139       0.76456772       0.11838168        6 
O      -3.04967242       0.40908927      -0.39914153        8 
O      -1.51130985       1.84875540       0.38814790        8 
O       2.76107574       0.79057804      -0.30633190        8 
O       1.07925932       1.43398798       1.03550091        8 
C       3.63477603       1.66445439       0.42679575        6 
C      -4.07302209       1.35980835      -0.06399170        6 
C      -1.06241975      -1.69966219       0.34874405        6 
C      -0.32896056      -1.55717935       1.67120876        6 
C       0.98178391      -1.58905289       1.41038609        6 
C       1.14354978      -1.69801645      -0.10024586        6 
C      -0.06810964      -2.59420572      -0.42644089        6 
C       1.01855279      -0.14716101      -2.19728395        6 
H       3.27652358       2.69391118       0.37896252        1 
H      -3.93597750       2.28692570      -0.62376771        1 
H       1.79034071      -1.41697558       2.10806772        1 
H       4.60691284       1.57369812      -0.05369126        1 
H       3.69399484       1.35842036       1.47304150        1 
H      -5.01266173       0.88497950      -0.33985143        1 
H      -4.05623756       1.58436305       1.00394950        1 
H       2.12208760      -2.00249818      -0.46684608        1 
H      -2.10202428      -2.01751163       0.39225284        1 
H       0.54293874      -0.95338694      -2.76011409        1 
H       0.64803253       0.80201824      -2.59612801        1 
H       2.09285294      -0.19002551      -2.36968461        1 
H       0.03257343      -3.58896995       0.00999909        1 
H      -0.29499367      -2.68437553      -1.49141387        1 
H      -0.80225689      -1.36137893       2.62389347        1 
H      -1.26454790      -0.63567420      -1.47657097        1 
