32
Lattice="0.0 0.0 0.0 0.0 0.0 0.0 0.0 0.0 0.0" Properties=species:S:1:pos:R:3:Z:I:1 pbc="F F F"
C      -0.45006472      -0.87819234       0.68234802        6 
C      -0.48775075       0.71391410       0.63245417        6 
C       0.66153200      -1.60862666      -0.04425874        6 
C       0.53670482       1.35282425      -0.31153178        6 
O       1.62197680      -1.98503305       0.84293316        8 
O       0.74284086      -1.82935725      -1.22358352        8 
O       1.20554252       2.37607121       0.27595098        8 
O       0.72831187       1.03933155      -1.45846924        8 
C       2.15201757       3.05997010      -0.56415646        6 
C       2.75455981      -2.67089110       0.27907252        6 
C      -1.87948176      -1.28359802       0.14541030        6 
C      -1.97481953      -0.87745697      -1.31473539        6 
C      -2.03349155       0.45608829      -1.35609840        6 
C      -1.96638936       0.96181273       0.07279497        6 
C      -2.73454387      -0.17298272       0.78945942        6 
C      -0.34411033       1.27592419       2.05944123        6 
H       2.91763636       2.36860782      -0.92007358        1 
H       3.24547626      -2.04646593      -0.46900200        1 
H      -1.99510118       1.08289196      -2.23527710        1 
H       2.59185021       3.83176645       0.06377258        1 
H       1.64846314       3.50369723      -1.42472422        1 
H       3.42166450      -2.86783641       1.11558709        1 
H       2.44034557      -3.60541601      -0.18902985        1 
H      -2.30006720       1.98520834       0.24637942        1 
H      -2.13902741      -2.31599998       0.37996598        1 
H      -1.07021119       0.81466746       2.72944911        1 
H       0.65308394       1.07652145       2.45608078        1 
H      -0.50055740       2.35522108       2.07471312        1 
H      -3.77702647      -0.21969958       0.47246212        1 
H      -2.68520523      -0.14317739       1.87913099        1 
H      -1.87857759      -1.55403543      -2.15045611        1 
H      -0.37067037      -1.16447073       1.73115690        1 
