32
Lattice="0.0 0.0 0.0 0.0 0.0 0.0 0.0 0.0 0.0" Properties=species:S:1:pos:R:3:Z:I:1 pbc="F F F"
C       0.68666494      -0.67756875      -0.82556416        6 
C       0.48584108       0.87715095      -0.54216312        6 
C      -0.27792877      -1.71599851      -0.27999885        6 
C      -0.72182148       1.24850938       0.32762249        6 
O      -1.55640474      -1.29692841      -0.25559179        8 
O       0.05210976      -2.83604561       0.02905639        8 
O      -1.82796428       1.47526864      -0.40924621        8 
O      -0.69969447       1.41605181       1.52363508        8 
C      -3.02190742       1.77673532       0.32726063        6 
C      -2.53381570      -2.25457418       0.19229854        6 
C       2.14249318      -0.95568792      -0.29562978        6 
C       2.07069334      -0.84283926       1.22081849        6 
C       1.88485914       0.44748439       1.51396013        6 
C       1.84067814       1.21837129       0.19902531        6 
C       2.84074247       0.37568450      -0.63059468        6 
C       0.37749054       1.65086832      -1.87615113        6 
H      -3.27144574       0.95218447       0.99775303        1 
H      -2.32861663      -2.55390052       1.22083546        1 
H       1.69198666       0.88231481       2.48244804        1 
H      -3.79973064       1.90919247      -0.42215945        1 
H      -2.89591434       2.68757878       0.91478948        1 
H      -3.49084291      -1.74154604       0.12495275        1 
H      -2.52467442      -3.13657907      -0.44945915        1 
H       2.01674463       2.29171921       0.26738304        1 
H       2.57101157      -1.87279688      -0.69368171        1 
H       1.24380974       1.46268384      -2.51049689        1 
H      -0.51842601       1.35780295      -2.42290264        1 
H       0.32165629       2.72739531      -1.69370890        1 
H       3.85188995       0.42260713      -0.22456710        1 
H       2.86976782       0.61221558      -1.69532686        1 
H       2.05188831      -1.68603115       1.89669893        1 
H       0.65361430      -0.81951192      -1.91213608        1 
