32
Lattice="0.0 0.0 0.0 0.0 0.0 0.0 0.0 0.0 0.0" Properties=species:S:1:pos:R:3:Z:I:1 pbc="F F F"
C      -0.32473493      -1.01288196       0.55825008        6 
C      -0.75458693       0.50525479       0.74834427        6 
C       1.02106438      -1.33078778      -0.05440752        6 
C      -0.00694456       1.56943981      -0.05991774        6 
O       2.00611453      -1.18214276       0.85853130        8 
O       1.20582305      -1.78439133      -1.15815568        8 
O       1.30940303       1.32440954      -0.18369289        8 
O      -0.53269059       2.56100224      -0.50724503        8 
C       2.06621598       2.28561208      -0.94327205        6 
C       3.33850100      -1.43372744       0.38773641        6 
C      -1.54567361      -1.65283172      -0.17129708        6 
C      -1.70769895      -0.97451901      -1.52228794        6 
C      -2.14673655       0.26800442      -1.29777835        6 
C      -2.24919573       0.45172333       0.21160078        6 
C      -2.68425488      -0.97045138       0.62255266        6 
C      -0.66363787       0.93805895       2.22341708        6 
H       1.69392559       2.33330527      -1.96748588        1 
H       3.57827127      -0.76916911      -0.44431939        1 
H      -2.28861669       1.05919707      -2.01982939        1 
H       3.09200347       1.92426449      -0.92528670        1 
H       1.99673849       3.27349034      -0.48655378        1 
H       3.99073696      -1.23510093       1.23558443        1 
H       3.44228219      -2.46888949       0.05800114        1 
H      -2.85086252       1.29077680       0.55473875        1 
H      -1.51576940      -2.74163551      -0.18002582        1 
H      -1.29719743       0.30411331       2.84743806        1 
H       0.36394023       0.85547776       2.58511842        1 
H      -0.99573745       1.97264717       2.33983584        1 
H      -3.67369684      -1.22444721       0.23975266        1 
H      -2.64821935      -1.16199364       1.69844826        1 
H      -1.41599504      -1.41342343      -2.46541763        1 
H      -0.27035795      -1.43720859       1.56503619        1 
