32
Lattice="0.0 0.0 0.0 0.0 0.0 0.0 0.0 0.0 0.0" Properties=species:S:1:pos:R:3:Z:I:1 pbc="F F F"
C      -0.31640552      -0.99339994       0.75980867        6 
C      -1.05296955       0.41018085       0.60102433        6 
C       1.19029535      -1.16777851       0.83190155        6 
C      -0.23178631       1.66891135       0.29020168        6 
O       1.85587159      -0.84662624      -0.28874908        8 
O       1.72994779      -1.69330780       1.78164278        8 
O       0.64692144       1.52053482      -0.70985108        8 
O      -0.40372852       2.72899421       0.84962314        8 
C       1.40696365       2.68565766      -1.06853724        6 
C       3.26802621      -1.11524355      -0.28330785        6 
C      -0.97404303      -1.87079133      -0.38456209        6 
C      -0.59991516      -1.28626604      -1.73400689        6 
C      -1.25477756      -0.12948761      -1.86542737        6 
C      -2.06274148       0.08733209      -0.59789582        6 
C      -2.43447637      -1.38091050      -0.27685642        6 
C      -1.84048117       0.71635810       1.89145278        6 
H       0.74807551       3.48260206      -1.41766084        1 
H       3.45729062      -2.17731480      -0.11907800        1 
H      -1.14615839       0.59471436      -2.66050182        1 
H       2.07120977       2.35997020      -1.86645997        1 
H       1.97996546       3.04664695      -0.21324197        1 
H       3.62259416      -0.80894680      -1.26537560        1 
H       3.76438089      -0.54092708       0.50058953        1 
H      -2.87256755       0.81437002      -0.65373194        1 
H      -0.79287149      -2.93674162      -0.24766039        1 
H      -2.46580111      -0.12930133       2.17620962        1 
H      -1.15877179       0.92627928       2.71830551        1 
H      -2.47558955       1.59255114       1.75870965        1 
H      -3.07303090      -1.81547517      -1.04720224        1 
H      -2.88773525      -1.53909545       0.70249928        1 
H       0.14884853      -1.69359561      -2.39785703        1 
H      -0.64599382      -1.40022671       1.71484443        1 
