32
Lattice="0.0 0.0 0.0 0.0 0.0 0.0 0.0 0.0 0.0" Properties=species:S:1:pos:R:3:Z:I:1 pbc="F F F"
C      -0.58172730       0.57377032      -0.93793607        6 
C      -0.63869878      -0.90455198      -0.40022466        6 
C       0.55015064       1.54355363      -0.65654395        6 
C       0.60483598      -1.53067188       0.22141421        6 
O       1.20502638       1.32896141       0.49640709        8 
O       0.72365350       2.53256312      -1.33361915        8 
O       1.73810382      -1.11692689      -0.37653650        8 
O       0.56974562      -2.48414880       0.96442334        8 
C       2.94078931      -1.81122079      -0.00724418        6 
C       2.17137862       2.32413755       0.86955784        6 
C      -1.87909938       1.20911841      -0.23306512        6 
C      -1.57798721       1.27122450       1.25921160        6 
C      -1.57628265       0.01628209       1.72056628        6 
C      -1.89054070      -0.90188834       0.54992468        6 
C      -2.84677674       0.01126840      -0.25556856        6 
C      -0.88800825      -1.86724082      -1.60361132        6 
H       3.11326750      -1.73318401       1.06698731        1 
H       1.68893293       3.29332332       1.00800871        1 
H      -1.29210182      -0.32306073       2.70725928        1 
H       3.73924035      -1.32100171      -0.56026487        1 
H       2.87244573      -2.86516342      -0.28287836        1 
H       2.60061379       1.97239221       1.80530066        1 
H       2.94158513       2.41617369       0.10239253        1 
H      -2.23069970      -1.90463699       0.79963085        1 
H      -2.19406810       2.13494241      -0.71036949        1 
H      -1.76928988      -1.56999771      -2.17092596        1 
H      -0.03384131      -1.85905386      -2.28420382        1 
H      -1.03694861      -2.88722536      -1.24394136        1 
H      -3.76909170       0.21918693       0.28861829        1 
H      -3.09404485      -0.34508957      -1.25625283        1 
H      -1.29354908       2.16668914       1.79515640        1 
H      -0.72380414       0.59309931      -2.01784770        1 
