32
Lattice="0.0 0.0 0.0 0.0 0.0 0.0 0.0 0.0 0.0" Properties=species:S:1:pos:R:3:Z:I:1 pbc="F F F"
C      -0.94401275      -0.66146427      -0.53640030        6 
C       0.59252234      -0.39576760      -0.69721777        6 
C      -1.87606237       0.43004350      -0.06296091        6 
C       1.12216599       0.69016616       0.23963200        6 
O      -1.47979866       1.64443217      -0.49895345        8 
O      -2.95763140       0.22733783       0.43482733        8 
O       2.34364987       1.12178618      -0.15245152        8 
O       0.58798556       1.08455091       1.24599025        8 
C       2.96915568       2.09346150       0.70427356        6 
C      -2.35323576       2.74369167      -0.19058479        6 
C      -1.04251286      -2.05438982       0.16361750        6 
C      -0.38147106      -1.97135370       1.52949939        6 
C       0.93553330      -1.84885786       1.33565025        6 
C       1.17399965      -1.80141189      -0.16767893        6 
C       0.07009076      -2.77904621      -0.63330372        6 
C       0.98918864      -0.13597997      -2.15698252        6 
H       2.34732313       2.98613305       0.78647147        1 
H      -2.42246732       2.87643989       0.89010464        1 
H       1.69022569      -1.66043163       2.08748187        1 
H       3.91913236       2.32967853       0.22974607        1 
H       3.12923198       1.67832499       1.70073688        1 
H      -1.89575954       3.61628093      -0.65215616        1 
H      -3.35024738       2.56943629      -0.59824298        1 
H       2.19273553      -1.97759451      -0.51040517        1 
H      -2.04550178      -2.47473641       0.13429951        1 
H       0.64981436      -0.95548352      -2.79434446        1 
H       0.53091247       0.78708391      -2.52074533        1 
H       2.07002841      -0.04549107      -2.26098451        1 
H       0.24897089      -3.79513305      -0.27950459        1 
H      -0.09610900      -2.79288004      -1.71323745        1 
H      -0.91598202      -1.91099284       2.46739089        1 
H      -1.32145826      -0.81939635      -1.55591998        1 
