32
Lattice="0.0 0.0 0.0 0.0 0.0 0.0 0.0 0.0 0.0" Properties=species:S:1:pos:R:3:Z:I:1 pbc="F F F"
C       0.66236732      -0.67644169      -0.84595597        6 
C       0.49649132       0.87843301      -0.54241459        6 
C      -0.28966842      -1.73531174      -0.30660436        6 
C      -0.71744846       1.32448567       0.27848174        6 
O      -1.54603200      -1.30879548      -0.10326598        8 
O       0.05005848      -2.88088883      -0.12190471        8 
O      -1.84278068       1.36452899      -0.46090991        8 
O      -0.67280193       1.73777905       1.41329601        8 
C      -3.03516656       1.76909409       0.22592585        6 
C      -2.48751683      -2.29670317       0.35665300        6 
C       2.11012239      -0.98262161      -0.29494692        6 
C       1.99781385      -0.89205367       1.22259149        6 
C       1.82598789       0.39674547       1.53175709        6 
C       1.83523732       1.18751908       0.22819469        6 
C       2.84069743       0.33961685      -0.58770510        6 
C       0.43374191       1.66765778      -1.87509023        6 
H      -3.25648562       1.07781795       1.04163024        1 
H      -2.17734613      -2.69800851       1.32220272        1 
H       1.61147978       0.82266802       2.50016418        1 
H      -3.82517775       1.74235767      -0.52190024        1 
H      -2.92517900       2.77546238       0.63311860        1 
H      -3.43548908      -1.77030578       0.44495709        1 
H      -2.56564954      -3.11196742      -0.36384348        1 
H       2.02668156       2.25589098       0.31906071        1 
H       2.53182451      -1.90082130      -0.69642789        1 
H       1.31544655       1.47959579      -2.48801466        1 
H      -0.44945010       1.38847777      -2.44954550        1 
H       0.38336777       2.74290841      -1.68150886        1 
H       3.84135937       0.35949437      -0.15401024        1 
H       2.90487082       0.59225177      -1.64708412        1 
H       1.94952493      -1.74589799       1.88412141        1 
H       0.63887126      -0.81201743      -1.93290893        1 
