32
Lattice="0.0 0.0 0.0 0.0 0.0 0.0 0.0 0.0 0.0" Properties=species:S:1:pos:R:3:Z:I:1 pbc="F F F"
C      -0.46244399      -0.87503246       0.65991962        6 
C      -0.65544746       0.70856302       0.64677226        6 
C       0.75844033      -1.38948924      -0.06953358        6 
C       0.31889199       1.40748049      -0.30996029        6 
O       1.77406139      -1.60187692       0.80157736        8 
O       0.85429162      -1.59881176      -1.25349159        8 
O       1.49749651       1.66599869       0.30644841        8 
O       0.14192771       1.64363779      -1.47724068        8 
C       2.53032328       2.21969747      -0.52835602        6 
C       3.00952578      -2.06057252       0.22557922        6 
C      -1.83484573      -1.41725090       0.13035625        6 
C      -2.02087483      -0.98471682      -1.31326062        6 
C      -2.22322063       0.33510138      -1.31141990        6 
C      -2.15832014       0.80999316       0.13280591        6 
C      -2.78554758      -0.42147097       0.83252854        6 
C      -0.50948730       1.29643620       2.06098662        6 
H       2.72406537       1.56557049      -1.38000396        1 
H       3.39338368      -1.32993207      -0.48850178        1 
H      -2.29710823       0.98574876      -2.16886393        1 
H       3.40793339       2.29568873       0.11003768        1 
H       2.23757025       3.20436078      -0.89659921        1 
H       3.69561609      -2.17438664       1.06207084        1 
H       2.86368533      -3.01407355      -0.28457472        1 
H      -2.59851281       1.78539680       0.34057442        1 
H      -1.97507008      -2.47761795       0.34121691        1 
H      -1.26147329       0.87617461       2.72985474        1 
H       0.47688122       1.08538655       2.47318164        1 
H      -0.64440269       2.38135287       2.04287956        1 
H      -3.82627006      -0.57026552       0.54308981        1 
H      -2.70559287      -0.42237771       1.92196312        1 
H      -1.88777169      -1.62732398      -2.17103227        1 
H      -0.34287138      -1.17203575       1.70310464        1 
