32
Lattice="0.0 0.0 0.0 0.0 0.0 0.0 0.0 0.0 0.0" Properties=species:S:1:pos:R:3:Z:I:1 pbc="F F F"
C      -0.01150877       0.91337795       0.76585055        6 
C       1.05849956      -0.24892892       0.64679674        6 
C      -1.48712710       0.58466283       0.72243224        6 
C       0.71944896      -1.50189496      -0.17180760        6 
O      -2.13120505       1.27171299      -0.24883536        8 
O      -2.04194802      -0.18193490       1.46944328        8 
O      -0.57819998      -1.82889906      -0.17965042        8 
O       1.56206097      -2.14409412      -0.75668688        8 
C      -0.93860209      -3.01423938      -0.91202131        6 
C      -3.54416755       1.02612232      -0.36086823        6 
C       0.55117214       2.04809416      -0.14394283        6 
C       0.66344241       1.53000250      -1.56816695        6 
C       1.65904173       0.63837499      -1.59506986        6 
C       2.19646692       0.51013337      -0.17374528        6 
C       2.03283531       1.96853848       0.29890011        6 
C       1.52723674      -0.73654444       2.02793909        6 
H      -0.67224338      -2.90724990      -1.96463143        1 
H      -4.05272801       1.27496933       0.57179565        1 
H       1.96171885       0.01035440      -2.42077971        1 
H      -2.01568534      -3.10732814      -0.79159110        1 
H      -0.42972341      -3.88644856      -0.49941119        1 
H      -3.88791136       1.66855452      -1.16887294        1 
H      -3.72865846      -0.02259509      -0.59933462        1 
H       3.17246144       0.04184413      -0.06927296        1 
H       0.03381769       2.99720844      -0.01547408        1 
H       1.94647296       0.09179313       2.60391348        1 
H       0.68820050      -1.15243882       2.59114347        1 
H       2.29656618      -1.50457733       1.92086567        1 
H       2.67709464       2.65329186      -0.25461277        1 
H       2.17801082       2.11491686       1.37227333        1 
H      -0.01270316       1.78874231      -2.37129168        1 
H       0.09611516       1.27439569       1.79650719        1 
