32
Lattice="0.0 0.0 0.0 0.0 0.0 0.0 0.0 0.0 0.0" Properties=species:S:1:pos:R:3:Z:I:1 pbc="F F F"
C       0.88616225      -0.52678801       0.84481247        6 
C      -0.66418290      -0.59898521       0.55143914        6 
C       1.82677780       0.63248567       0.53671517        6 
C      -1.44502760       0.68779792       0.29327071        6 
O       1.34889077       1.57243325      -0.27940788        8 
O       2.99142400       0.57941129       0.87237901        8 
O      -2.65427733       0.37358414      -0.24716851        8 
O      -1.11492614       1.82025414       0.52164166        8 
C      -3.54564465       1.47598036      -0.48157692        6 
C       2.27507182       2.58527678      -0.70268833        6 
C       1.42497827      -1.69893078      -0.11881211        6 
C       1.26160296      -1.16250709      -1.53580557        6 
C      -0.04787902      -1.13980236      -1.80476994        6 
C      -0.77478376      -1.68290214      -0.58613099        6 
C       0.26823133      -2.71205338      -0.08935985        6 
C      -1.36417931      -1.12136032       1.85051548        6 
H      -3.77485038       1.98999471       0.45368948        1 
H       3.08396431       2.14348008      -1.28806808        1 
H      -0.53421993      -0.72144715      -2.67610099        1 
H      -4.44645428       1.03621831      -0.90510469        1 
H      -3.10180330       2.18723747      -1.17988272        1 
H       1.68898843       3.27124781      -1.31026910        1 
H       2.69839670       3.10231433       0.15922588        1 
H      -1.79443690      -2.02608568      -0.74351668        1 
H       2.41892145      -2.03734901       0.16333117        1 
H      -0.86395603      -2.00241579       2.25055341        1 
H      -1.34332070      -0.35171914       2.62713230        1 
H      -2.40547293      -1.37694456       1.64691594        1 
H       0.41582245      -3.51997198      -0.80787499        1 
H       0.06375528      -3.13761320       0.89268095        1 
H       2.06323368      -0.75969859      -2.14040305        1 
H       1.08183069      -0.80142717       1.88057278        1 
