32
Lattice="0.0 0.0 0.0 0.0 0.0 0.0 0.0 0.0 0.0" Properties=species:S:1:pos:R:3:Z:I:1 pbc="F F F"
C      -0.79839123       0.67612892       0.67533052        6 
C       0.74112022       0.34872433       0.76181720        6 
C      -1.77160474      -0.47771005       0.57142184        6 
C       1.17584512      -0.90109110      -0.01203560        6 
O      -2.64281464      -0.31775518      -0.44984009        8 
O      -1.78615103      -1.42235507       1.31886820        8 
O       2.49253279      -0.81248654      -0.33536173        8 
O       0.52895750      -1.89219761      -0.22861112        8 
C       3.04774144      -1.95613663      -1.00699897        6 
C      -3.59673877      -1.38183898      -0.62601311        6 
C      -0.88811447       1.89306807      -0.29416569        6 
C      -0.29975142       1.50418172      -1.63941914        6 
C       1.02235140       1.37969624      -1.48143098        6 
C       1.33002801       1.62333504      -0.00626577        6 
C       0.28423932       2.71523219       0.29595397        6 
C       1.22961403       0.20638329       2.20904642        6 
H       2.97187359      -2.84480240      -0.37836493        1 
H      -4.21567506      -1.49284324       0.26581232        1 
H       1.74303551       1.04078371      -2.21261982        1 
H       4.08990821      -1.70598638      -1.19425209        1 
H       2.52194051      -2.13879061      -1.94596918        1 
H      -4.20443277      -1.08908866      -1.47982640        1 
H      -3.07889324      -2.32133468      -0.82338503        1 
H       2.36928636       1.82506904       0.24269321        1 
H      -1.87289692       2.35589731      -0.31373063        1 
H       1.02781104       1.12244732       2.77051941        1 
H       0.70975965      -0.61882056       2.70155928        1 
H       2.30440627       0.01530722       2.23990044        1 
H       0.47998472       3.63460289      -0.25841879        1 
H       0.16630169       2.94595080       1.35804309        1 
H      -0.88109373       1.29186219      -2.52615983        1 
H      -1.04898004       1.07614516       1.66616610        1 
