32
Lattice="0.0 0.0 0.0 0.0 0.0 0.0 0.0 0.0 0.0" Properties=species:S:1:pos:R:3:Z:I:1 pbc="F F F"
C      -0.74978580       0.39889925       0.84405250        6 
C       0.76973183       0.71350659       0.52486512        6 
C      -1.20057565      -1.01373132       0.54987030        6 
C       1.42407251      -0.36703631      -0.34705256        6 
O      -2.44278241      -1.05655417       0.03060701        8 
O      -0.54803427      -2.00015723       0.79746438        8 
O       2.56345812      -0.84406019       0.19172564        8 
O       1.00313829      -0.74909060      -1.41251514        8 
C       3.19243098      -1.91715468      -0.53142281        6 
C      -2.95727464      -2.36908721      -0.26568895        6 
C      -1.53950473       1.58062828       0.18153948        6 
C      -1.37693003       1.47098255      -1.32344822        6 
C      -0.10584109       1.76363875      -1.61070841        6 
C       0.60546329       2.07114274      -0.30125711        6 
C      -0.55892250       2.73840266       0.47180270        6 
C       1.56867328       0.94295731       1.81789809        6 
H       2.51595231      -2.77077403      -0.59343312        1 
H      -3.01702544      -2.96992556       0.64297883        1 
H       0.38191704       1.67444639      -2.57049118        1 
H       4.08078717      -2.17069535       0.04315882        1 
H       3.46232420      -1.59639653      -1.53866009        1 
H      -3.94828168      -2.20360298      -0.68269652        1 
H      -2.31297734      -2.87065105      -0.98869579        1 
H       1.54366779       2.62110660      -0.37557181        1 
H      -2.55757780       1.67679280       0.55439804        1 
H       1.09847820       1.71287013       2.43084281        1 
H       1.62019889       0.02429478       2.40434567        1 
H       2.59030404       1.25732303       1.59814064        1 
H      -0.87339458       3.67406795       0.00783761        1 
H      -0.36559924       2.90455370       1.53326978        1 
H      -2.13200027       1.09320294      -1.99824439        1 
H      -0.86609667       0.48109077       1.93103651        1 
