32
Lattice="0.0 0.0 0.0 0.0 0.0 0.0 0.0 0.0 0.0" Properties=species:S:1:pos:R:3:Z:I:1 pbc="F F F"
C      -0.35431329      -1.01034962       0.54737036        6 
C      -0.72513711       0.52324226       0.74032798        6 
C       0.98566258      -1.40132246      -0.03363956        6 
C       0.03339328       1.56455963      -0.09244506        6 
O       1.98090662      -1.14028765       0.84076528        8 
O       1.15307027      -2.01605284      -1.05987369        8 
O       1.35452871       1.33072577      -0.17817444        8 
O      -0.49077301       2.52724930      -0.60065446        8 
C       2.11581640       2.27614253      -0.95284876        6 
C       3.30756797      -1.46055525       0.39675740        6 
C      -1.59907932      -1.61434407      -0.16708281        6 
C      -1.75876725      -0.93389124      -1.51624089        6 
C      -2.15636454       0.32178841      -1.28757377        6 
C      -2.23084656       0.51214148       0.22331557        6 
C      -2.70480712      -0.89575468       0.64165277        6 
C      -0.59954622       0.96041104       2.21044327        6 
H       1.74755097       2.30809165      -1.97908297        1 
H       3.53840466      -0.92516037      -0.52607907        1 
H      -2.28464181       1.11510842      -2.00934018        1 
H       3.14085062       1.91303751      -0.92381693        1 
H       2.04760999       3.27237417      -0.51403980        1 
H       3.96908205      -1.14024983       1.19897224        1 
H       3.40827382      -2.53295960       0.22117241        1 
H      -2.80345213       1.36908914       0.57192978        1 
H      -1.60041438      -2.70324914      -0.17349457        1 
H      -1.23208829       0.33982550       2.84887662        1 
H       0.43300750       0.86272252       2.55339238        1 
H      -0.91274681       2.00088892       2.32845921        1 
H      -3.70690149      -1.11774927       0.27237180        1 
H      -2.66091257      -1.08824575       1.71715760        1 
H      -1.49522595      -1.38358026      -2.46298423        1 
H      -0.31949200      -1.42891257       1.55898295        1 
