32
Lattice="0.0 0.0 0.0 0.0 0.0 0.0 0.0 0.0 0.0" Properties=species:S:1:pos:R:3:Z:I:1 pbc="F F F"
C       0.87168973      -0.54921320      -0.76457077        6 
C       0.31782645       0.91626134      -0.51721085        6 
C       0.06423410      -1.81610837      -0.57075374        6 
C      -0.97292545       1.04973444       0.31087086        6 
O      -1.05318020      -1.67557951       0.15313127        8 
O       0.40247542      -2.86550254      -1.07092709        8 
O      -1.99051638       1.54286516      -0.43678431        8 
O      -1.12186400       0.75367831       1.46848608        8 
C      -3.25438777       1.67379900       0.23401865        6 
C      -1.84737386      -2.85943011       0.34878722        6 
C       2.25460677      -0.57584121      -0.00462961        6 
C       1.99084372      -0.43397978       1.48234507        6 
C       1.56279008       0.81399231       1.69323790        6 
C       1.52646168       1.52362559       0.34472334        6 
C       2.74569904       0.85077791      -0.32971078        6 
C       0.18145876       1.65351984      -1.86216750        6 
H      -3.60381875       0.69962428       0.58029528        1 
H      -1.25731271      -3.63799867       0.83353360        1 
H       1.19234408       1.22962392       2.61778260        1 
H      -3.93569561       2.08411391      -0.50858931        1 
H      -3.16869899       2.34524478       1.08985546        1 
H      -2.67094084      -2.54789502       0.98723831        1 
H      -2.21692169      -3.23293773      -0.60785770        1 
H       1.50383420       2.61321612       0.37403802        1 
H       2.87699229      -1.41174614      -0.31937897        1 
H       1.12559565       1.63510206      -2.40784374        1 
H      -0.57931296       1.18476306      -2.48847455        1 
H      -0.10731016       2.69534047      -1.71392587        1 
H       3.67866378       1.09037505       0.18140820        1 
H       2.85328503       1.05468039      -1.39676786        1 
H       2.03233633      -1.24318120       2.19910328        1 
H       1.11719276      -0.60369164      -1.82884116        1 
