32
Lattice="0.0 0.0 0.0 0.0 0.0 0.0 0.0 0.0 0.0" Properties=species:S:1:pos:R:3:Z:I:1 pbc="F F F"
C      -0.35039958      -0.94006654       0.60185825        6 
C      -0.76721612       0.59216937       0.70735678        6 
C       0.94479911      -1.22839035      -0.12357529        6 
C       0.08663529       1.52994109      -0.14622742        6 
O       1.92936421      -1.52273571       0.75464697        8 
O       1.10293915      -1.24525449      -1.32076444        8 
O       1.38302151       1.48125989       0.23560526        8 
O      -0.30694196       2.23777147      -1.03835091        8 
C       2.30342336       2.25174857      -0.55827365        6 
C       3.22218085      -1.77979985       0.18139018        6 
C      -1.61796497      -1.61116796      -0.03205886        6 
C      -1.81820942      -1.05682254      -1.43309355        6 
C      -2.21405845       0.21271485      -1.31043240        6 
C      -2.25862501       0.53759807       0.17568902        6 
C      -2.71566982      -0.83241346       0.72863720        6 
C      -0.68901278       1.09289475       2.16275796        6 
H       2.31604789       1.87514383      -1.58235293        1 
H       3.57024149      -0.90788992      -0.37505890        1 
H      -2.35442563       0.93597787      -2.09912241        1 
H       3.27479811       2.11835276      -0.08678614        1 
H       2.01910521       3.30457714      -0.56240496        1 
H       3.87933854      -1.98322950       1.02409746        1 
H       3.18097474      -2.63890126      -0.49017370        1 
H      -2.83696499       1.41629686       0.45841895        1 
H      -1.61428455      -2.69701632       0.06352748        1 
H      -1.34862988       0.50897728       2.80700327        1 
H       0.32909337       1.01064968       2.54568457        1 
H      -0.99739181       2.14060909       2.22556004        1 
H      -3.71967538      -1.09737735       0.39458284        1 
H      -2.65438265      -0.93001778       1.81530578        1 
H      -1.57173229      -1.58286770      -2.34383161        1 
H      -0.22492380      -1.31498949       1.61876690        1 
