32
Lattice="0.0 0.0 0.0 0.0 0.0 0.0 0.0 0.0 0.0" Properties=species:S:1:pos:R:3:Z:I:1 pbc="F F F"
C      -0.59039375       1.05901114       0.46464461        6 
C       0.61542215       0.08738997       0.80967883        6 
C      -1.81309701       0.47767941      -0.20759254        6 
C       0.61515692      -1.23668367       0.03726688        6 
O      -2.48001998      -0.32398752       0.64520097        8 
O      -2.22887091       0.79066821      -1.29772685        8 
O       1.87141249      -1.61630917      -0.29190006        8 
O      -0.33672128      -1.95692033      -0.13901730        8 
C       1.99184579      -2.89811068      -0.93459993        6 
C      -3.60062748      -1.03917427       0.10065706        6 
C       0.08140585       2.26310024      -0.25174866        6 
C       0.73943768       1.76049019      -1.52572958        6 
C       1.80355688       1.03483923      -1.16884345        6 
C       1.84222119       0.99567167       0.35536580        6 
C       1.31904001       2.41429714       0.66372905        6 
C       0.65171635      -0.28472179       2.30093278        6 
H       1.61904411      -3.68996999      -0.28307437        1 
H      -3.26311484      -1.69898301      -0.70003345        1 
H       2.45728054       0.46520759      -1.81342550        1 
H       3.05496899      -3.02678370      -1.12659329        1 
H       1.42826169      -2.90827965      -1.86878814        1 
H      -4.00151612      -1.62262522       0.92685211        1 
H      -4.35252849      -0.34783158      -0.28315270        1 
H       2.78475407       0.69252694       0.80681611        1 
H      -0.58189187       3.11975971      -0.35970441        1 
H       0.72877562       0.61527909       2.91490647        1 
H      -0.25872398      -0.81818224       2.58235779        1 
H       1.51295146      -0.92135755       2.52044111        1 
H       2.00592286       3.19025749       0.32252606        1 
H       1.06937960       2.58353211       1.71463460        1 
H       0.33899703       1.90579249      -2.51897628        1 
H      -0.97051016       1.41579078       1.42783731        1 
