32
Lattice="0.0 0.0 0.0 0.0 0.0 0.0 0.0 0.0 0.0" Properties=species:S:1:pos:R:3:Z:I:1 pbc="F F F"
C       1.02526928       0.45885113      -0.80296533        6 
C      -0.50653468       0.80324568      -0.65010743        6 
C       1.61262527      -0.90040274      -0.47272327        6 
C      -1.44582449      -0.38293772      -0.46444012        6 
O       0.82430884      -1.68773656       0.27233723        8 
O       2.76037673      -1.17828580      -0.74053861        8 
O      -2.32564424      -0.18548979       0.54142700        8 
O      -1.46354846      -1.35871676      -1.17252118        8 
C      -3.29645260      -1.22985611       0.73637114        6 
C       1.37814518      -2.95056816       0.67760808        6 
C       1.69213069       1.47945935       0.23131990        6 
C       1.30798308       0.98357966       1.61985753        6 
C      -0.00071657       1.20693338       1.77289532        6 
C      -0.50582347       1.87622781       0.50246674        6 
C       0.75160714       2.69189085       0.11615773        6 
C      -1.02558101       1.42820504      -1.97923336        6 
H      -3.89225209      -1.37238126      -0.16657011        1 
H       2.24426538      -2.79891728       1.32410488        1 
H      -0.63429169       0.88357090       2.58648152        1 
H      -3.92284468      -0.89470658       1.56042560        1 
H      -2.79872452      -2.16753387       0.98775031        1 
H       0.57954324      -3.45587837       1.21637386        1 
H       1.67736924      -3.53154123      -0.19542412        1 
H      -1.45043872       2.41056297       0.58323347        1 
H       2.75296435       1.62455975       0.03915939        1 
H      -0.42606978       2.28623232      -2.28207476        1 
H      -0.99059781       0.68521233      -2.77786387        1 
H      -2.06140208       1.76124264      -1.86594648        1 
H       0.98528922       3.46205904       0.85218278        1 
H       0.71976398       3.13945615      -0.87746173        1 
H       1.96358231       0.43459136       2.28280811        1 
H       1.36739452       0.69459741      -1.81108238        1 
