32
Lattice="0.0 0.0 0.0 0.0 0.0 0.0 0.0 0.0 0.0" Properties=species:S:1:pos:R:3:Z:I:1 pbc="F F F"
C       0.19265739       1.10176794       0.39369091        6 
C       0.73840394      -0.30370588       0.83381513        6 
C      -1.25262478       1.31750468       0.01323754        6 
C       0.16770945      -1.54632828       0.14262698        6 
O      -2.08376970       0.61340282       0.81221655        8 
O      -1.63898943       2.18109106      -0.73816328        8 
O      -0.89934321      -1.31949874      -0.63970537        8 
O       0.70943469      -2.62652129       0.21009476        8 
C      -1.36642667      -2.43371790      -1.42050616        6 
C      -3.48928478       0.83381673       0.61442180        6 
C       1.29132735       1.69390425      -0.53732475        6 
C       1.49907808       0.76156322      -1.71879651        6 
C       2.09358831      -0.34540181      -1.26215362        6 
C       2.23544377      -0.19700166       0.24909438        6 
C       2.51906734       1.31707513       0.33023035        6 
C       0.70595093      -0.51687281       2.35088765        6 
H      -0.58834008      -2.76496229      -2.11037652        1 
H      -3.77980982       0.55290757      -0.39966923        1 
H       2.31566779      -1.24985375      -1.81238474        1 
H      -2.22920592      -2.06033837      -1.96792416        1 
H      -1.65016212      -3.26385365      -0.77239966        1 
H      -3.98870249       0.19734603       1.34198504        1 
H      -3.74460831       1.88170756       0.78095281        1 
H       2.92170569      -0.88378292       0.73952012        1 
H       1.13065555       2.74380429      -0.77166392        1 
H       1.28728909       0.25758467       2.85704028        1 
H      -0.32083129      -0.47090585       2.72171732        1 
H       1.12938177      -1.48977208       2.60627913        1 
H       3.46678795       1.57777785      -0.14287397        1 
H       2.48731626       1.73059337       1.34154441        1 
H       1.14418706       0.95343237      -2.72241596        1 
H       0.23858638       1.70992901       1.30805010        1 
