32
Lattice="0.0 0.0 0.0 0.0 0.0 0.0 0.0 0.0 0.0" Properties=species:S:1:pos:R:3:Z:I:1 pbc="F F F"
C       0.72617598      -0.64278091       0.67377144        6 
C      -0.84299199      -0.50167689       0.79464029        6 
C       1.50582538       0.53974240       0.14391659        6 
C      -1.36927869       0.91066939       0.48829850        6 
O       2.82917251       0.34322457       0.34763808        8 
O       1.06643989       1.51596691      -0.41171408        8 
O      -1.85995470       1.04534828      -0.75417208        8 
O      -1.42632161       1.78875471       1.31584202        8 
C      -2.27318874       2.37198381      -1.12364926        6 
C       3.70232947       1.37361858      -0.15146846        6 
C       0.90487125      -1.89356520      -0.28950513        6 
C       0.44840375      -1.45229910      -1.66965048        6 
C      -0.87722507      -1.29822065      -1.61585128        6 
C      -1.33011123      -1.63729899      -0.20141014        6 
C      -0.30525137      -2.75264766       0.12756755        6 
C      -1.29855326      -0.80625220       2.23751063        6 
H      -3.06875851       2.72492556      -0.46578968        1 
H       3.47116170       2.33026487       0.31927181        1 
H      -1.52399707      -0.91036280      -2.38782305        1 
H      -2.63015110       2.28909304      -2.14838210        1 
H      -1.42132113       3.05031136      -1.06518564        1 
H       4.70840461       1.05157532       0.10786487        1 
H       3.59692313       1.47220390      -1.23320381        1 
H      -2.38706494      -1.87394746      -0.08295786        1 
H       1.89586614      -2.33810183      -0.21935806        1 
H      -0.92408440      -1.76888717       2.58521412        1 
H      -0.94514306      -0.02926238       2.91542840        1 
H      -2.39017970      -0.82615475       2.29608211        1 
H      -0.42649175      -3.62532513      -0.51607494        1 
H      -0.28978393      -3.07271693       1.17015631        1 
H       1.10543051      -1.20249001      -2.49212904        1 
H       1.14743274      -0.89046263       1.65016660        1 
