32
Lattice="0.0 0.0 0.0 0.0 0.0 0.0 0.0 0.0 0.0" Properties=species:S:1:pos:R:3:Z:I:1 pbc="F F F"
C      -0.60491217       0.98423638       0.50337762        6 
C       0.70211642       0.14705544       0.82304331        6 
C      -1.69705366       0.26714828      -0.26271090        6 
C       0.68135587      -1.25952074       0.23616005        6 
O      -2.74327553      -0.00489855       0.54585293        8 
O      -1.67302785      -0.01588093      -1.43558516        8 
O       1.87228960      -1.62436731      -0.27685830        8 
O      -0.26394250      -2.00830597       0.30283353        8 
C       1.94317219      -2.96217096      -0.80734560        6 
C      -3.80239714      -0.78100612      -0.04285405        6 
C      -0.03300801       2.23222448      -0.26301339        6 
C       0.58002191       1.75063568      -1.57050579        6 
C       1.69783523       1.08370586      -1.26856107        6 
C       1.83530497       1.08392943       0.24619002        6 
C       1.25018575       2.47899603       0.56295815        6 
C       0.85107614      -0.07216180       2.34624405        6 
H       1.74336985      -3.69453376      -0.02371749        1 
H      -3.41545546      -1.74524662      -0.37537308        1 
H       2.32999719       0.52235039      -1.94138092        1 
H       2.95745855      -3.07024348      -1.18516563        1 
H       1.21576311      -3.08691295      -1.61037537        1 
H      -4.53858591      -0.91333018       0.74715253        1 
H      -4.24061995      -0.25331719      -0.89173241        1 
H       2.82156561       0.84876191       0.64242786        1 
H      -0.75060670       3.04907744      -0.33811267        1 
H       0.88662602       0.88148911       2.87569245        1 
H       0.00687866      -0.64853361       2.73027699        1 
H       1.77237680      -0.61771675       2.56908226        1 
H       1.86013793       3.28494417       0.15305002        1 
H       1.06372102       2.66357305       1.62365284        1 
H       0.11384765       1.84576677      -2.54010451        1 
H      -1.03970539       1.31242770       1.44772784        1 
