32
Lattice="0.0 0.0 0.0 0.0 0.0 0.0 0.0 0.0 0.0" Properties=species:S:1:pos:R:3:Z:I:1 pbc="F F F"
C      -0.57393288      -0.97299874       0.75644573        6 
C      -0.67573447       0.61555913       0.80699657        6 
C       0.64186781      -1.69886848       0.19846592        6 
C       0.60685771       1.38724827       0.45840027        6 
O       1.76995124      -0.97536642       0.20213090        8 
O       0.59194516      -2.84126611      -0.19507152        8 
O       0.65612544       1.78086113      -0.83031239        8 
O       1.47789786       1.64903398       1.25057397        8 
C       1.86016907       2.45038359      -1.23779330        6 
C       2.95025294      -1.62424945      -0.30467948        6 
C      -1.83638574      -1.37957143      -0.10331161        6 
C      -1.51141366      -0.95837624      -1.53048166        6 
C      -1.53740470       0.37692602      -1.56257505        6 
C      -1.89669462       0.86955973      -0.16589164        6 
C      -2.84590436      -0.27687657       0.26786059        6 
C      -1.01794892       1.06202413       2.24783561        6 
H       2.01359616       3.35949101      -0.65454266        1 
H       2.81075115      -1.89993240      -1.35111739        1 
H      -1.27217232       1.01915055      -2.38871217        1 
H       1.71819859       2.68837678      -2.29015629        1 
H       2.71926555       1.79062957      -1.10634201        1 
H       3.74694556      -0.89134961      -0.19890831        1 
H       3.17211795      -2.51999024       0.27670215        1 
H      -2.27649040       1.88916121      -0.10420611        1 
H      -2.13108099      -2.41616940       0.03977516        1 
H      -1.86944483       0.51509633       2.65005471        1 
H      -0.16130711       0.89726636       2.90143491        1 
H      -1.25494816       2.12928646       2.27257469        1 
H      -3.74127311      -0.32120556      -0.35361125        1 
H      -3.13843552      -0.26308232       1.31786468        1 
H      -1.21064689      -1.63528266      -2.31820898        1 
H      -0.68405953      -1.35034813       1.77809154        1 
