32
Lattice="0.0 0.0 0.0 0.0 0.0 0.0 0.0 0.0 0.0" Properties=species:S:1:pos:R:3:Z:I:1 pbc="F F F"
C       0.74436732      -0.90384306       0.71230946        6 
C      -0.75763908      -0.39580509       0.74472315        6 
C       1.81976013       0.15704092       0.59690611        6 
C      -0.96107696       1.01559178       0.19279831        6 
O       2.18537228       0.39318297      -0.67903983        8 
O       2.29444927       0.73029965       1.54635627        8 
O      -2.16075490       1.13054661      -0.42136238        8 
O      -0.23475021       1.95974040       0.38016721        8 
C      -2.51160120       2.44802107      -0.88047053        6 
C       3.08816319       1.49581973      -0.87698612        6 
C       0.71221602      -2.07243932      -0.32678988        6 
C       0.29125388      -1.52951638      -1.68211275        6 
C      -1.00148324      -1.20182798      -1.60157003        6 
C      -1.45795401      -1.48526609      -0.17575464        6 
C      -0.60955352      -2.74112975       0.12321561        6 
C      -1.31574099      -0.37794260       2.17923000        6 
H      -2.53360441       3.15058194      -0.04600544        1 
H       4.02015423       1.33349273      -0.33370676        1 
H      -1.60582379      -0.71277906      -2.35223859        1 
H      -3.49994482       2.34627537      -1.32372835        1 
H      -1.79215232       2.79674825      -1.62315492        1 
H       3.26992848       1.53316737      -1.94927142        1 
H       2.62092419       2.41896168      -0.53138502        1 
H      -2.53263268      -1.54997441      -0.01655855        1 
H       1.61481436      -2.68230963      -0.31081278        1 
H      -1.27171995      -1.37840603       2.61491564        1 
H      -0.73255844       0.29727421       2.80915464        1 
H      -2.35868787      -0.05027535       2.18530464        1 
H      -0.89123608      -3.58627450      -0.50708038        1 
H      -0.61158243      -3.05255683       1.17108149        1 
H       0.96177349      -1.36306336      -2.51270639        1 
H       0.93798204      -1.34551536       1.69232419        1 
