32
Lattice="0.0 0.0 0.0 0.0 0.0 0.0 0.0 0.0 0.0" Properties=species:S:1:pos:R:3:Z:I:1 pbc="F F F"
C      -0.58367658       0.41885411       0.80170158        6 
C       0.96462751       0.51020716       0.53623620        6 
C      -1.40861847      -0.63750412       0.08638269        6 
C       1.63838437      -0.65619275      -0.18022697        6 
O      -2.70754568      -0.49488024       0.45870373        8 
O      -1.04719517      -1.48978852      -0.68302156        8 
O       1.36393782      -1.82941126       0.41774864        8 
O       2.49033757      -0.52722352      -1.02789960        8 
C       1.92797735      -3.00276100      -0.18827248        6 
C      -3.64167669      -1.40660347      -0.14489481        6 
C      -1.08719828       1.82885913       0.23055087        6 
C      -0.94181032       1.71501323      -1.28295791        6 
C       0.36630260       1.71598534      -1.55835106        6 
C       1.11249587       1.86381370      -0.24135820        6 
C       0.10814952       2.74620139       0.53852248        6 
C       1.72255182       0.57281446       1.89388289        6 
H       1.50697264      -3.14055081      -1.18554512        1 
H      -3.40581924      -2.43609187       0.13004021        1 
H       0.84098962       1.53546843      -2.51238197        1 
H       1.64260881      -3.82985168       0.45850793        1 
H       3.01370704      -2.92094015      -0.25514524        1 
H      -4.61702584      -1.12198172       0.24440340        1 
H      -3.62078267      -1.31384083      -1.23198547        1 
H       2.14474565       2.19942894      -0.31186135        1 
H      -2.06761519       2.11071416       0.60684290        1 
H       1.36055318       1.39076864       2.51650227        1 
H       1.59300002      -0.35834239       2.44749401        1 
H       2.79147527       0.72347727       1.72169163        1 
H      -0.00881701       3.73252406       0.08721564        1 
H       0.32387081       2.85931172       1.60165994        1 
H      -1.75702101       1.53279926      -1.97120618        1 
H      -0.79995483       0.34518341       1.86837998        1 
