32
Lattice="0.0 0.0 0.0 0.0 0.0 0.0 0.0 0.0 0.0" Properties=species:S:1:pos:R:3:Z:I:1 pbc="F F F"
C       0.80843630      -0.60391989      -0.77345572        6 
C       0.39416356       0.90766574      -0.53195247        6 
C      -0.08781767      -1.77744908      -0.43636543        6 
C      -0.86536785       1.12511138       0.32299612        6 
O      -1.32326360      -1.43909677      -0.03220416        8 
O       0.26122093      -2.92323344      -0.60284233        8 
O      -1.91911995       1.50726735      -0.43315687        8 
O      -0.94974427       0.98836923       1.51783255        8 
C      -3.16483716       1.66525603       0.26273892        6 
C      -2.21923709      -2.52584574       0.26496101        6 
C       2.23227528      -0.72647493      -0.11460500        6 
C       2.05897122      -0.56881320       1.38527302        6 
C       1.73203423       0.70614742       1.61590641        6 
C       1.67699976       1.42020472       0.26902600        6 
C       2.80685159       0.66028541      -0.46804484        6 
C       0.25751779       1.64360800      -1.87892005        6 
H      -3.45744143       0.72446824       0.73210384        1 
H      -1.79398036      -3.16729040       1.03733274        1 
H       1.44402494       1.14858670       2.55698235        1 
H      -3.88750699       1.95612745      -0.49700983        1 
H      -3.08362275       2.43557116       1.03137152        1 
H      -3.13490601      -2.05696278       0.61790944        1 
H      -2.40945370      -3.11801251      -0.63161909        1 
H       1.73862692       2.50826481       0.29896625        1 
H       2.77063622      -1.60670150      -0.45892482        1 
H       1.17414304       1.55507341      -2.46323079        1 
H      -0.56194344       1.23062714      -2.46824466        1 
H       0.05396221       2.70548295      -1.72479175        1 
H       3.78151400       0.83112129      -0.00958666        1 
H       2.87178588       0.85792884      -1.53973995        1 
H       2.08683218      -1.38130530       2.09883779        1 
H       0.94726527      -0.71955325      -1.85463110        1 
