32
Lattice="0.0 0.0 0.0 0.0 0.0 0.0 0.0 0.0 0.0" Properties=species:S:1:pos:R:3:Z:I:1 pbc="F F F"
C       0.84994836      -0.60266903       0.76091398        6 
C      -0.72483188      -0.53387213       0.55140169        6 
C       1.88021358       0.51096444       0.65918966        6 
C      -1.38488818       0.70521510      -0.06533682        6 
O       1.65245663       1.44657504      -0.25999762        8 
O       2.90295581       0.45517580       1.31102918        8 
O      -2.71128015       0.71710452       0.25124234        8 
O      -0.90582250       1.53050712      -0.79473207        8 
C      -3.48854824       1.76454252      -0.35036237        6 
C       2.67876405       2.43737626      -0.43678369        6 
C       1.28479059      -1.77961600      -0.21689578        6 
C       1.02160355      -1.31163757      -1.63595151        6 
C      -0.30343999      -1.28612720      -1.80940010        6 
C      -0.94438588      -1.72312672      -0.50261850        6 
C       0.10226227      -2.74839640      -0.02033454        6 
C      -1.40770685      -0.86880401       1.89830264        6 
H      -3.13372505       2.74309656      -0.02255903        1 
H       3.59874737       1.97373867      -0.79787754        1 
H      -0.84294817      -0.89781853      -2.66246654        1 
H      -4.50961628       1.59660586      -0.01335856        1 
H      -3.42995390       1.71182420      -1.43892646        1 
H       2.27952982       3.12856717      -1.17573734        1 
H       2.88335304       2.95106199       0.50356582        1 
H      -1.98558977      -2.04030923      -0.54991992        1 
H       2.28522974      -2.14731318       0.00400389        1 
H      -0.94436744      -1.74069940       2.36161446        1 
H      -1.30960919      -0.03356625       2.59708824        1 
H      -2.46897303      -1.07291225       1.76578216        1 
H       0.15984960      -3.61240837      -0.68423842        1 
H      -0.03174602      -3.08658376       1.00818316        1 
H       1.77672853      -0.95464208      -2.32289156        1 
H       1.00699255      -0.97204742       1.77404032        1 
