32
Lattice="0.0 0.0 0.0 0.0 0.0 0.0 0.0 0.0 0.0" Properties=species:S:1:pos:R:3:Z:I:1 pbc="F F F"
C       0.65806314      -0.74163956      -0.80232794        6 
C       0.51666570       0.82915308      -0.55453415        6 
C      -0.38722012      -1.63673304      -0.16913157        6 
C      -0.64015118       1.18166072       0.39052179        6 
O      -1.61323968      -1.36558559      -0.67323263        8 
O      -0.18784859      -2.49613922       0.65186565        8 
O      -1.72569341       1.62866721      -0.27562322        8 
O      -0.61506805       1.10259709       1.59521709        8 
C      -2.87658267       1.93141263       0.52917514        6 
C      -2.70677881      -2.12597749      -0.12775334        6 
C       2.11448306      -1.05815508      -0.31254368        6 
C       2.14892926      -0.87347962       1.19705715        6 
C       2.03284136       0.43438104       1.43972359        6 
C       1.92753887       1.14660389       0.09719474        6 
C       2.84205622       0.22878249      -0.75365627        6 
C       0.34315856       1.57240819      -1.89430765        6 
H      -3.21377848       1.04087344       1.06251253        1 
H      -2.77299671      -1.97571696       0.95102894        1 
H       1.91662546       0.91490160       2.39901898        1 
H      -3.63803227       2.26963290      -0.17043820        1 
H      -2.64488671       2.71288731       1.25434109        1 
H      -3.59788809      -1.74865252      -0.62492850        1 
H      -2.57445682      -3.18935293      -0.33358175        1 
H       2.14776239       2.21446438       0.09851897        1 
H       2.49238415      -2.00662372      -0.69258761        1 
H       1.17858233       1.36370886      -2.56294762        1 
H      -0.57830660       1.26743807      -2.38949358        1 
H       0.29817601       2.65269591      -1.73640230        1 
H       3.87764345       0.25461904      -0.41341750        1 
H       2.80858663       0.41693800      -1.82838137        1 
H       2.13747864      -1.68179654       1.91261627        1 
H       0.57877454      -0.90759762      -1.88083457        1 
