32
Lattice="0.0 0.0 0.0 0.0 0.0 0.0 0.0 0.0 0.0" Properties=species:S:1:pos:R:3:Z:I:1 pbc="F F F"
C      -0.79471673       0.38745280       0.73649255        6 
C       0.77688811       0.40770669       0.65585883        6 
C      -1.62082670      -0.69464627       0.05750641        6 
C       1.48298498      -0.89103217       0.28120845        6 
O      -2.92908029      -0.47706533       0.37902895        8 
O      -1.27265570      -1.60540361      -0.64185605        8 
O       2.65378503      -0.63131201      -0.35457994        8 
O       1.10212664      -2.00434396       0.52384259        8 
C       3.42421339      -1.78626427      -0.73274501        6 
C      -3.87507436      -1.39431704      -0.19485403        6 
C      -1.15953435       1.73549358      -0.05667023        6 
C      -0.84326586       1.42788570      -1.51740008        6 
C       0.48710173       1.35798378      -1.62991328        6 
C       1.07859078       1.64776055      -0.26053319        6 
C       0.02995560       2.65085231       0.27679795        6 
C       1.33765433       0.64977062       2.09372674        6 
H       3.70803571      -2.36329689       0.14890886        1 
H      -3.65593621      -2.41733651       0.11530786        1 
H       1.05846193       1.04772914      -2.49404664        1 
H       4.30615319      -1.39526995      -1.23594032        1 
H       2.84702206      -2.42291533      -1.40508786        1 
H      -4.84768353      -1.08091811       0.17926101        1 
H      -3.85005360      -1.34102527      -1.28500255        1 
H       2.12365986       1.94660395      -0.24082738        1 
H      -2.16251533       2.09359727       0.16258711        1 
H       0.89086393       1.52579136       2.56350203        1 
H       1.12641072      -0.21501823       2.72716510        1 
H       2.42017072       0.79515747       2.05912557        1 
H       0.00880185       3.57289680      -0.30609866        1 
H       0.12645464       2.89647129       1.33429676        1 
H      -1.57808106       1.17435629      -2.27029270        1 
H      -1.13374305       0.46027670       1.76950438        1 
