32
Lattice="0.0 0.0 0.0 0.0 0.0 0.0 0.0 0.0 0.0" Properties=species:S:1:pos:R:3:Z:I:1 pbc="F F F"
C       0.51700962      -1.02693911       0.70425066        6 
C      -0.87763701      -0.25098720       0.77719571        6 
C       1.75806330      -0.16924387       0.57201741        6 
C      -0.79788577       1.22463108       0.36295978        6 
O       2.17245901      -0.03664078      -0.70754292        8 
O       2.30025851       0.37349554       1.50174707        8 
O      -1.59990247       1.53008155      -0.67872128        8 
O      -0.18339258       2.06421819       0.97396074        8 
C      -1.62740697       2.91323319      -1.07347754        6 
C       3.29775484       0.83717875      -0.91370678        6 
C       0.25501193      -2.15864288      -0.34028061        6 
C      -0.03951580      -1.54121219      -1.69731419        6 
C      -1.23735201      -0.95782089      -1.62010992        6 
C      -1.75271857      -1.14637044      -0.19738764        6 
C      -1.17909036      -2.55403889       0.09027058        6 
C      -1.42631510      -0.24223967       2.21566828        6 
H      -1.95640120       3.54190194      -0.24502478        1 
H       4.17736613       0.45862254      -0.39071083        1 
H      -1.73019807      -0.36643845      -2.37653273        1 
H      -2.33389058       2.96321088      -1.89950143        1 
H      -0.63657117       3.23576963      -1.39708422        1 
H       3.46526312       0.84484553      -1.98881315        1 
H       3.06796416       1.83938630      -0.54933131        1 
H      -2.82264511      -1.00013911      -0.05408780        1 
H       1.01556380      -2.93926141      -0.32113564        1 
H      -1.55243859      -1.26049172       2.58741170        1 
H      -0.73949658       0.29021882       2.87511924        1 
H      -2.39917335       0.25634728       2.25532627        1 
H      -1.61424915      -3.31566058      -0.55806865        1 
H      -1.25616298      -2.87510547       1.13190099        1 
H       0.65095829      -1.52137353      -2.52780086        1 
H       0.64823158      -1.49995337       1.68077474        1 
