32
Lattice="0.0 0.0 0.0 0.0 0.0 0.0 0.0 0.0 0.0" Properties=species:S:1:pos:R:3:Z:I:1 pbc="F F F"
C      -0.75465388       0.58292213       0.62675232        6 
C       0.79532938       0.22974068       0.65306726        6 
C      -1.76181424      -0.28236706      -0.10392525        6 
C       1.26068872      -0.91130485      -0.25638239        6 
O      -2.65042999      -0.79275534       0.79623297        8 
O      -1.82919549      -0.51170671      -1.28152508        8 
O       2.24414994      -1.64395864       0.33061840        8 
O       0.87678578      -1.14041658      -1.37279591        8 
C       2.78628959      -2.70801251      -0.47041400        6 
C      -3.68808695      -1.62293375       0.24659681        6 
C      -0.76953146       2.05863000       0.05062207        6 
C      -0.27530027       2.00825892      -1.38312779        6 
C       1.03468238       1.74783510      -1.34603700        6 
C       1.42911276       1.59741574       0.11200304        6 
C       0.47756563       2.63170321       0.75228826        6 
C       1.22786699      -0.02877449       2.11121831        6 
H       2.00450833      -3.41985340      -0.74006221        1 
H      -3.25764454      -2.49389576      -0.25095663        1 
H       1.67656152       1.52620654      -2.18689214        1 
H       3.54084206      -3.18382723       0.15262953        1 
H       3.23456016      -2.31180551      -1.38319473        1 
H      -4.29678559      -1.92825212       1.09523572        1 
H      -4.28716376      -1.06283495      -0.47355559        1 
H       2.49110118       1.67330707       0.34455209        1 
H      -1.72004877       2.56430519       0.22131804        1 
H       0.89774087       0.78185367       2.76198085        1 
H       0.79243599      -0.95718130       2.48844976        1 
H       2.31131777      -0.11345448       2.19046429        1 
H       0.70400839       3.64788087       0.42692827        1 
H       0.43166880       2.59797948       1.84167902        1 
H      -0.90914368       2.04148287      -2.25707282        1 
H      -1.08818203       0.61800314       1.66267202        1 
