32
Lattice="0.0 0.0 0.0 0.0 0.0 0.0 0.0 0.0 0.0" Properties=species:S:1:pos:R:3:Z:I:1 pbc="F F F"
C       0.52918049      -0.85760394      -0.69273782        6 
C       0.46836364       0.73408388      -0.62518976        6 
C      -0.54504034      -1.64779659       0.02565358        6 
C      -0.60135705       1.28591998       0.32328879        6 
O      -1.54530789      -1.95518813      -0.84410655        8 
O      -0.57790325      -1.94873475       1.18941689        8 
O      -1.34164700       2.26480597      -0.25315548        8 
O      -0.77646616       0.94069597       1.46419477        8 
C      -2.35067487       2.85501293       0.58493099        6 
C      -2.67043563      -2.65469877      -0.28230045        6 
C       1.97617953      -1.18083027      -0.15402727        6 
C       2.04207033      -0.78410221       1.31210919        6 
C       2.01888439       0.54988502       1.36690701        6 
C       1.92567132       1.06476772      -0.05906874        6 
C       2.76249103      -0.01423984      -0.78573744        6 
C       0.28762079       1.30307784      -2.04569587        6 
H      -3.06767392       2.09904840       0.90939550        1 
H      -3.13048856      -2.06217123       0.51026273        1 
H       1.93451485       1.16460974       2.25129102        1 
H      -2.83740542       3.60635023      -0.03325721        1 
H      -1.89762862       3.31420515       1.46512867        1 
H      -3.36471119      -2.79883075      -1.10755755        1 
H      -2.35748574      -3.61627086       0.12783102        1 
H       2.19804567       2.10782589      -0.22227484        1 
H       2.29856136      -2.19311316      -0.39832570        1 
H       1.05084126       0.90966716      -2.71792579        1 
H      -0.68928312       1.03094828      -2.44989267        1 
H       0.35825227       2.39141436      -2.04684163        1 
H       3.80656541       0.00058963      -0.47145471        1 
H       2.70929078       0.02273204      -1.87529131        1 
H       1.98078799      -1.47467362       2.13939164        1 
H       0.46520987      -1.13774174      -1.74499428        1 
