32
Lattice="0.0 0.0 0.0 0.0 0.0 0.0 0.0 0.0 0.0" Properties=species:S:1:pos:R:3:Z:I:1 pbc="F F F"
C      -0.58262615       0.55804408      -0.96953032        6 
C      -0.67285550      -0.93498916      -0.40981796        6 
C       0.75876764       1.24764249      -0.82862459        6 
C       0.49373004      -1.32930392       0.50310756        6 
O       0.87414945       1.95980065       0.31062997        8 
O       1.65036043       1.15133102      -1.63796913        8 
O       1.60805143      -1.56159523      -0.21927580        8 
O       0.46509775      -1.42419829       1.70575554        8 
C       2.79743561      -1.88148650       0.52129972        6 
C       2.14412975       2.59752647       0.53274909        6 
C      -1.85234611       1.24937259      -0.36401243        6 
C      -1.73528164       1.29682655       1.15150088        6 
C      -1.85108444       0.04531722       1.60257813        6 
C      -2.03742339      -0.86305157       0.39351543        6 
C      -2.85866244       0.08426653      -0.51518891        6 
C      -0.75043207      -1.95112210      -1.56659473        6 
H       3.02445177      -1.08960330       1.23683270        1 
H       2.36087821       3.30763068      -0.26663688        1 
H      -1.72604721      -0.30426330       2.61566977        1 
H       3.58598351      -1.96475328      -0.22301424        1 
H       2.67183070      -2.82306862       1.05866057        1 
H       2.04774832       3.10897800       1.48787565        1 
H       2.94058761       1.85282135       0.57449226        1 
H      -2.45195661      -1.85102280       0.59424498        1 
H      -2.09635452       2.18789227      -0.86172335        1 
H      -1.62278426      -1.75588896      -2.19290902        1 
H       0.14187704      -1.89634935      -2.18989559        1 
H      -0.83681878      -2.96991978      -1.17772941        1 
H      -3.83514137       0.31839260      -0.08981001        1 
H      -2.98545652      -0.26363348      -1.54326441        1 
H      -1.49655441       2.18252787       1.72164359        1 
H      -0.71559143       0.48676405      -2.05156430        1 
