32
Lattice="0.0 0.0 0.0 0.0 0.0 0.0 0.0 0.0 0.0" Properties=species:S:1:pos:R:3:Z:I:1 pbc="F F F"
C      -0.82771569      -0.35517054      -0.59561498        6 
C       0.74287888      -0.50187034      -0.61709162        6 
C      -1.48131189       0.92323736      -0.11939686        6 
C       1.53229973       0.47353851       0.27641895        6 
O      -2.77153920       0.93100308      -0.55368244        8 
O      -1.01691363       1.81063071       0.54663247        8 
O       2.47457229       1.14433395      -0.43066528        8 
O       1.37464643       0.64729417       1.45574783        8 
C       3.24560923       2.09994990       0.31801294        6 
C      -3.56462716       2.06056228      -0.15044998        6 
C      -1.34159498      -1.68269491       0.09354831        6 
C      -0.84190306      -1.72154551       1.52393893        6 
C       0.48053102      -1.90655308       1.47991481        6 
C       0.88900486      -1.97375284       0.01353167        6 
C      -0.36091566      -2.67747116      -0.56557022        6 
C       1.25462736      -0.47707102      -2.06746293        6 
H       2.59177396       2.86203179       0.74458151        1 
H      -3.13932963       2.98636638      -0.54167535        1 
H       1.16918092      -1.88337109       2.31123457        1 
H       3.93609137       2.53947648      -0.39888194        1 
H       3.79105793       1.60618010       1.12403914        1 
H      -4.55263690       1.88667833      -0.57164375        1 
H      -3.61692597       2.12429145       0.93770414        1 
H       1.86162026      -2.41642747      -0.20089093        1 
H      -2.40653670      -1.84429913      -0.06418819        1 
H       0.72227800      -1.21244143      -2.67279033        1 
H       1.10207685       0.50533275      -2.51855987        1 
H       2.32084309      -0.70167700      -2.11623568        1 
H      -0.47575097      -3.69049122      -0.17815822        1 
H      -0.41170117      -2.69691946      -1.65625618        1 
H      -1.44366949      -1.51261173       2.39799997        1 
H      -1.15223951      -0.43220941      -1.63746070        1 
