32
Lattice="0.0 0.0 0.0 0.0 0.0 0.0 0.0 0.0 0.0" Properties=species:S:1:pos:R:3:Z:I:1 pbc="F F F"
C      -0.75287390       0.41759198       0.64637746        6 
C       0.81875361       0.56967584       0.60739345        6 
C      -1.38905578      -0.84591361       0.11665597        6 
C       1.55073977      -0.45078150      -0.28468800        6 
O      -2.66229292      -0.92834544       0.58015506        8 
O      -0.90889334      -1.67047260      -0.61881260        8 
O       2.12034516      -1.42930108       0.45544149        8 
O       1.58878983      -0.45349473      -1.48759804        8 
C       2.68482689      -2.52000711      -0.29378942        6 
C      -3.42729161      -2.05940592       0.12627167        6 
C      -1.29409189       1.74952067      -0.00923513        6 
C      -0.86943528       1.77954952      -1.46347572        6 
C       0.45555040       1.95046137      -1.48791945        6 
C       0.93978894       2.02323426      -0.04462668        6 
C      -0.27483511       2.74217408       0.59063703        6 
C       1.39892204       0.55431185       2.03216193        6 
H       1.91435238      -2.98069960      -0.91350828        1 
H      -2.94698618      -2.99165498       0.42777668        1 
H       1.09975384       1.92714847      -2.35297152        1 
H       3.05664073      -3.22132718       0.45053973        1 
H       3.49841704      -2.16932404      -0.93080103        1 
H      -4.40120176      -1.96018745       0.60073359        1 
H      -3.52606582      -2.04386211      -0.96037587        1 
H       1.92427383       2.46484242       0.10887158        1 
H      -2.34910215       1.91542772       0.20225883        1 
H       0.95538802       1.34623111       2.63712040        1 
H       1.20655464      -0.39967554       2.52467576        1 
H       2.48048221       0.70574959       2.01530066        1 
H      -0.40410514       3.75132043       0.19771606        1 
H      -0.27167582       2.77273483       1.68206547        1 
H      -1.51840189       1.57798620      -2.30516461        1 
H      -1.05250846       0.45430801       1.69792438        1 
