32
Lattice="0.0 0.0 0.0 0.0 0.0 0.0 0.0 0.0 0.0" Properties=species:S:1:pos:R:3:Z:I:1 pbc="F F F"
C      -0.18185202      -1.05578133       0.55335478        6 
C      -0.83573620       0.37459171       0.77717513        6 
C       1.19807063      -1.17831372      -0.06299488        6 
C      -0.17726212       1.61290061       0.17027903        6 
O       2.14445559      -1.10491901       0.90368065        8 
O       1.45919612      -1.33681933      -1.22886166        8 
O       0.96054608       1.37042845      -0.49258539        8 
O      -0.64053996       2.72274587       0.30161669        8 
C       1.58662365       2.49119700      -1.14167601        6 
C       3.50713414      -1.14204582       0.44868241        6 
C      -1.27352252      -1.80335671      -0.29619903        6 
C      -1.39787809      -1.08600870      -1.63323625        6 
C      -1.99734297       0.08700871      -1.40622682        6 
C      -2.25716732       0.18208379       0.08948789        6 
C      -2.55102883      -1.29840604       0.40700909        6 
C      -0.97805627       0.66483878       2.28745512        6 
H       0.89731897       2.94804844      -1.85279132        1 
H       3.70241907      -0.30682960      -0.22613565        1 
H      -2.16465383       0.88981317      -2.11221592        1 
H       2.44886546       2.07610322      -1.65876580        1 
H       1.89343663       3.23618969      -0.40618655        1 
H       4.11704836      -1.06032909       1.34590308        1 
H       3.71406211      -2.07846940      -0.07203998        1 
H      -2.97466865       0.93327303       0.41402528        1 
H      -1.11579716      -2.88036482      -0.34265272        1 
H      -1.54811907      -0.12473521       2.78003214        1 
H       0.00418110       0.71730206       2.76568035        1 
H      -1.48795956       1.61598455       2.44506177        1 
H      -3.46246519      -1.64799971      -0.08038319        1 
H      -2.59422845      -1.53472681       1.47262691        1 
H      -0.97370376      -1.44212274      -2.56010679        1 
H      -0.11472372      -1.52856636       1.53449035        1 
