32
Lattice="0.0 0.0 0.0 0.0 0.0 0.0 0.0 0.0 0.0" Properties=species:S:1:pos:R:3:Z:I:1 pbc="F F F"
C       0.86526896      -0.57607154      -0.74462684        6 
C       0.32974594       0.89995172      -0.53460243        6 
C       0.03939957      -1.82432411      -0.51046285        6 
C      -0.94872572       1.05930766       0.30732213        6 
O      -1.13977660      -1.62096253       0.09276046        8 
O       0.40220192      -2.90933018      -0.90530376        8 
O      -1.97423629       1.54193198      -0.43478461        8 
O      -1.07965417       0.79271872       1.47457894        8 
C      -3.22783044       1.68857452       0.25125088        6 
C      -1.96446738      -2.78097340       0.30376024        6 
C       2.25836254      -0.59716693      -0.00706224        6 
C       2.01847173      -0.41058052       1.47934873        6 
C       1.60499690       0.84696156       1.66092534        6 
C       1.55554729       1.51910421       0.29327958        6 
C       2.75868520       0.81517882      -0.37907233        6 
C       0.17843763       1.60128793      -1.89676107        6 
H      -3.57238080       0.72212565       0.62303794        1 
H      -1.42883314      -3.52809499       0.89022404        1 
H       1.25342872       1.29257918       2.57886444        1 
H      -3.91985200       2.08340776      -0.48990416        1 
H      -3.12952699       2.37807871       1.09119174        1 
H      -2.83368526      -2.41833251       0.84792578        1 
H      -2.25966636      -3.21747610      -0.65193731        1 
H       1.54338547       2.60924746       0.29251995        1 
H       2.86691943      -1.44818825      -0.30724707        1 
H       1.11514587       1.56373640      -2.45435317        1 
H      -0.59322450       1.11919231      -2.49928128        1 
H      -0.10410676       2.64794549      -1.77272991        1 
H       3.70112668       1.05981809       0.11165273        1 
H       2.85320485       0.98798243      -1.45296237        1 
H       2.06529307      -1.19904977       2.21856818        1 
H       1.09413589      -0.66406384      -1.81121756        1 
