32
Lattice="0.0 0.0 0.0 0.0 0.0 0.0 0.0 0.0 0.0" Properties=species:S:1:pos:R:3:Z:I:1 pbc="F F F"
C       0.79856039      -0.72165391       0.81349749        6 
C      -0.75533218      -0.48272758       0.63046282        6 
C       1.80548598       0.40365563       0.63349173        6 
C      -1.17233047       0.90525653       0.14943278        6 
O       1.97649054       0.78581289      -0.64151618        8 
O       2.50366854       0.80022384       1.53987563        8 
O      -2.51652784       0.94223913      -0.02519723        8 
O      -0.46375945       1.84703577      -0.09890861        8 
C      -3.05791464       2.18167174      -0.51470019        6 
C       2.85971914       1.89564300      -0.85951586        6 
C       1.05676081      -1.93262808      -0.17875382        6 
C       0.78941357      -1.45869009      -1.60082584        6 
C      -0.52838928      -1.27697808      -1.72651757        6 
C      -1.16271564      -1.61978731      -0.39098849        6 
C      -0.22445303      -2.76141884       0.06547651        6 
C      -1.46556727      -0.69280627       1.99508553        6 
H      -2.82310690       2.99908167       0.16856141        1 
H       3.85659742       1.68246780      -0.47096312        1 
H      -1.05571483      -0.85330342      -2.57101713        1 
H      -4.13322450       2.02575238      -0.57052495        1 
H      -2.65218650       2.41162938      -1.50131825        1 
H       2.88739607       2.03538260      -1.93840925        1 
H       2.45871129       2.78584438      -0.37230501        1 
H      -2.23393004      -1.81188385      -0.39403532        1 
H       2.01402647      -2.42362283      -0.00662386        1 
H      -1.20482563      -1.66197440       2.42147375        1 
H      -1.15909510       0.07678045       2.70925879        1 
H      -2.54855595      -0.64403733       1.87865195        1 
H      -0.28877554      -3.62945376      -0.59203523        1 
H      -0.36071811      -3.07765963       1.10132368        1 
H       1.55509119      -1.21872748      -2.32320822        1 
H       0.96861123      -1.06619475       1.83224365        1 
