32
Lattice="0.0 0.0 0.0 0.0 0.0 0.0 0.0 0.0 0.0" Properties=species:S:1:pos:R:3:Z:I:1 pbc="F F F"
C       0.45983744      -0.82391636       0.55032743        6 
C      -0.97462726      -0.22474506       0.75756299        6 
C       1.66625345       0.08685379       0.57918357        6 
C      -1.28500484       1.16857724       0.19888245        6 
O       2.74921971      -0.55216073       0.07220670        8 
O       1.71058167       1.20839476       1.01682256        8 
O      -0.36376984       1.64750425      -0.64539319        8 
O      -2.34745730       1.71700989       0.39318410        8 
C      -0.68938211       2.87633617      -1.31409980        6 
C       3.98463380       0.18531409       0.10492233        6 
C       0.29335257      -1.91124092      -0.56703114        6 
C      -0.21386522      -1.25403044      -1.83773510        6 
C      -1.47699834      -0.87493577      -1.61938214        6 
C      -1.82040550      -1.23048901      -0.17865905        6 
C      -1.02195218      -2.54439876      -0.04617585        6 
C      -1.42870199      -0.28676482       2.22012906        6 
H      -1.57324796       2.74404356      -1.94154637        1 
H       4.24896782       0.44607184       1.13095159        1 
H      -2.11131352      -0.29541664      -2.27741556        1 
H       0.18096858       3.11312348      -1.92205157        1 
H      -0.87870969       3.66766475      -0.58832933        1 
H       4.73063873      -0.47923458      -0.32576970        1 
H       3.89814754       1.09914996      -0.48503809        1 
H      -2.87728516      -1.23630483       0.08108158        1 
H       1.16111275      -2.55898183      -0.66689747        1 
H      -1.39826955      -1.31474294       2.58868152        1 
H      -0.77276661       0.32106737       2.84921569        1 
H      -2.44612254       0.09206400       2.31940797        1 
H      -1.40486468      -3.32308150      -0.70741834        1 
H      -0.95077210      -2.93086310       0.97344699        1 
H       0.39043112      -1.05501678      -2.71267906        1 
H       0.64489941      -1.41351462       1.46065588        1 
