32
Lattice="0.0 0.0 0.0 0.0 0.0 0.0 0.0 0.0 0.0" Properties=species:S:1:pos:R:3:Z:I:1 pbc="F F F"
C      -0.68226595       0.57440455      -0.93153455        6 
C      -0.61035964      -0.93510561      -0.43207218        6 
C       0.53767986       1.46142787      -0.81184141        6 
C       0.62646828      -1.25624591       0.41786316        6 
O       1.02852248       1.52609099       0.43811849        8 
O       1.00887941       2.07607708      -1.74156381        8 
O       1.67156997      -1.59590345      -0.37441264        8 
O       0.73279652      -1.15892802       1.61317642        8 
C       2.92144827      -1.82550728       0.29814878        6 
C       2.18702048       2.35500105       0.63060515        6 
C      -1.98424730       1.13007957      -0.23434507        6 
C      -1.78434529       1.13912922       1.27029273        6 
C      -1.76598051      -0.13226726       1.67892507        6 
C      -1.93598622      -1.01339576       0.44840293        6 
C      -2.88653134      -0.11586774      -0.37944424        6 
C      -0.68235252      -1.90500749      -1.62691272        6 
H       3.22058955      -0.93749062       0.85721049        1 
H       1.96094893       3.39282436       0.38069780        1 
H      -1.55584824      -0.49957477       2.67121539        1 
H       3.63866274      -2.04501117      -0.48976276        1 
H       2.83699690      -2.66807034       0.98643530        1 
H       2.43715404       2.25803708       1.68468284        1 
H       3.01082028       2.00969515       0.00354554        1 
H      -2.25019592      -2.04100044       0.63290182        1 
H      -2.33207898       2.05709787      -0.68970115        1 
H      -1.61202891      -1.76754541      -2.18151218        1 
H       0.15095900      -1.74629287      -2.31133594        1 
H      -0.64452390      -2.94285377      -1.28518197        1 
H      -3.85473021       0.01485746       0.10510538        1 
H      -3.03736116      -0.43601696      -1.41259947        1 
H      -1.58560118       2.02131510       1.86243817        1 
H      -0.87061440       0.54924786      -2.00608963        1 
