32
Lattice="0.0 0.0 0.0 0.0 0.0 0.0 0.0 0.0 0.0" Properties=species:S:1:pos:R:3:Z:I:1 pbc="F F F"
C       0.96138744      -0.61287612      -0.60037651        6 
C       0.17347095       0.74609154      -0.67606919        6 
C       0.27251959      -1.86290554      -0.10543380        6 
C      -1.03591341       0.79419565       0.25647833        6 
O      -1.01195310      -1.91477416      -0.52074070        8 
O       0.83833269      -2.79317532       0.41558172        8 
O      -1.97505013       1.66157437      -0.18680439        8 
O      -1.14334916       0.20575592       1.30430269        8 
C      -3.12845519       1.82323150       0.65714310        6 
C      -1.74992258      -3.09356842      -0.15527991        6 
C       2.32206484      -0.24987647       0.07527526        6 
C       2.04819946       0.23861024       1.48691750        6 
C       1.45481388       1.43199345       1.39437994        6 
C       1.28612905       1.74656606      -0.08564925        6 
C       2.57968648       1.10096995      -0.63577820        6 
C      -0.20512620       1.10991443      -2.11924778        6 
H      -3.64402965       0.87005476       0.78396959        1 
H      -1.81250384      -3.17488576       0.93085505        1 
H       1.02478366       2.01025460       2.20068730        1 
H      -3.76615985       2.53858538       0.14205808        1 
H      -2.83681312       2.20385851       1.63729135        1 
H      -2.74083262      -2.96108728      -0.58466972        1 
H      -1.27197398      -3.98726071      -0.55938204        1 
H       1.08330589       2.78500704      -0.34587399        1 
H       3.07072034      -1.03205114      -0.03092691        1 
H       0.68001369       1.10622169      -2.75791630        1 
H      -0.91665176       0.38533131      -2.52344676        1 
H      -0.66331315       2.09729485      -2.17101929        1 
H       3.47538968       1.60320384      -0.26900901        1 
H       2.62220685       1.02751373      -1.72518145        1 
H       2.20480076      -0.34936184       2.38046561        1 
H       1.19245473      -0.88521630      -1.63867964        1 
