32
Lattice="0.0 0.0 0.0 0.0 0.0 0.0 0.0 0.0 0.0" Properties=species:S:1:pos:R:3:Z:I:1 pbc="F F F"
C       0.55579423      -0.81183407      -0.72818015        6 
C       0.53820190       0.77959317      -0.59145379        6 
C      -0.55464824      -1.56173061      -0.02589249        6 
C      -0.52853545       1.27857073       0.39250491        6 
O      -1.61605171      -1.70448016      -0.86181010        8 
O      -0.55800860      -1.96056448       1.10996794        8 
O      -1.55729210       1.88990102      -0.24287603        8 
O      -0.51429310       1.13379965       1.58885264        8 
C      -2.64083802       2.32359507       0.59727733        6 
C      -2.77440857      -2.35077364      -0.30388963        6 
C       1.99562224      -1.20142701      -0.23428207        6 
C       2.11162386      -0.87668386       1.24620618        6 
C       2.12555560       0.45345720       1.36262606        6 
C       2.00948800       1.03828693      -0.03673815        6 
C       2.80228063      -0.02888833      -0.83031628        6 
C       0.34778582       1.42985173      -1.97425099        6 
H      -3.08645863       1.47126432       1.11345571        1 
H      -3.13007824      -1.80832625       0.57355236        1 
H       2.09092077       1.02978241       2.27469794        1 
H      -3.36123075       2.78489642      -0.07503000        1 
H      -2.28979071       3.04318795       1.33842566        1 
H      -3.52274545      -2.33824084      -1.09359023        1 
H      -2.53884917      -3.37690120      -0.01657736        1 
H       2.31159818       2.07942210      -0.15545251        1 
H       2.28174835      -2.20990576      -0.53392453        1 
H       1.14130548       1.12183969      -2.65595741        1 
H      -0.60900184       1.14400339      -2.41167204        1 
H       0.36927213       2.51915015      -1.89880715        1 
H       3.85247060      -0.05807695      -0.53871663        1 
H       2.72814465       0.05780892      -1.91607864        1 
H       2.05868770      -1.60452385       2.04166604        1 
H       0.46073752      -1.04355253      -1.79054980        1 
