32
Lattice="0.0 0.0 0.0 0.0 0.0 0.0 0.0 0.0 0.0" Properties=species:S:1:pos:R:3:Z:I:1 pbc="F F F"
C       0.73292009      -0.61894261      -0.84675031        6 
C       0.45135773       0.91246651      -0.52828860        6 
C      -0.18721277      -1.73470673      -0.38459771        6 
C      -0.80493842       1.21774721       0.29786138        6 
O      -1.42746699      -1.33572137      -0.05737840        8 
O       0.15757368      -2.89303735      -0.36281899        8 
O      -1.88768056       1.40859804      -0.48448956        8 
O      -0.84170465       1.35566381       1.49656577        8 
C      -3.12216806       1.65663002       0.20330873        6 
C      -2.34058605      -2.36934853       0.35761193        6 
C       2.17862441      -0.85246711      -0.25820763        6 
C       2.02822053      -0.79407048       1.25525796        6 
C       1.76873947       0.47645892       1.57869571        6 
C       1.75391657       1.28852231       0.28738251        6 
C       2.82946410       0.51816070      -0.51676251        6 
C       0.37388385       1.72245404      -1.84283778        6 
H      -3.35925455       0.82441004       0.86839161        1 
H      -1.97009038      -2.86369125       1.25626865        1 
H       1.50694813       0.86913104       2.54896360        1 
H      -3.87568480       1.75212712      -0.57594198        1 
H      -3.05997144       2.57404282       0.79100395        1 
H      -3.28061611      -1.86071322       0.55906843        1 
H      -2.46404556      -3.10749417      -0.43583575        1 
H       1.87985467       2.36530169       0.39816137        1 
H       2.66165516      -1.73585302      -0.66874700        1 
H       1.27895958       1.59576759      -2.43715094        1 
H      -0.47730066       1.40756165      -2.44632770        1 
H       0.25693558       2.78865561      -1.63101115        1 
H       3.81694955       0.59591302      -0.05993675        1 
H       2.89948286       0.78957995      -1.57101904        1 
H       2.01550184      -1.65874672       1.90468755        1 
H       0.76405642      -0.73367053      -1.93633062        1 
