32
Lattice="0.0 0.0 0.0 0.0 0.0 0.0 0.0 0.0 0.0" Properties=species:S:1:pos:R:3:Z:I:1 pbc="F F F"
C       0.05149828      -0.96229114       0.78026264        6 
C      -1.12954439       0.08116946       0.66074641        6 
C       1.45591158      -0.40062120       0.81019643        6 
C      -0.79993179       1.45686612       0.07979699        6 
O       2.25729717      -0.95226593      -0.12320382        8 
O       1.83626933       0.41242553       1.61851476        8 
O       0.34979128       1.49204662      -0.61555131        8 
O      -1.54088550       2.40818446       0.16894093        8 
C       0.67908825       2.74277220      -1.24265927        6 
C       3.61108300      -0.46805329      -0.15140756        6 
C      -0.30672998      -2.06830121      -0.26907691        6 
C      -0.30052450      -1.44906985      -1.65691113        6 
C      -1.35713908      -0.63588205      -1.74053357        6 
C      -2.07007188      -0.67071569      -0.39724519        6 
C      -1.83174978      -2.14884001      -0.01566873        6 
C      -1.84467237       0.29047124       2.00309235        6 
H      -0.10368434       3.03395968      -1.94481425        1 
H       4.11196149      -0.67096716       0.79646149        1 
H      -1.60225173       0.03990142      -2.54948963        1 
H       1.61660356       2.56578805      -1.76541206        1 
H       0.79869775       3.52353302      -0.49065356        1 
H       4.09523562      -1.00569579      -0.96396735        1 
H       3.62360954       0.60663381      -0.33924868        1 
H      -3.09084402      -0.29206612      -0.37596813        1 
H       0.27339544      -2.98146775      -0.14738203        1 
H      -2.22031884      -0.65792392       2.39116153        1 
H      -1.15435959       0.70997016       2.73900213        1 
H      -2.68208700       0.97893201       1.88826420        1 
H      -2.33628895      -2.83381248      -0.69882618        1 
H      -2.09779462      -2.39823045       1.01399845        1 
H       0.48945863      -1.57945488      -2.38268236        1 
H      -0.04774353      -1.41766632       1.77144103        1 
