32
Lattice="0.0 0.0 0.0 0.0 0.0 0.0 0.0 0.0 0.0" Properties=species:S:1:pos:R:3:Z:I:1 pbc="F F F"
C       0.22809416      -0.92899427       0.54190018        6 
C      -0.91492772       0.14516742       0.81118392        6 
C       1.60176755      -0.61817163      -0.02820220        6 
C      -0.76974986       1.60734448       0.37648857        6 
O       2.54900628      -1.06702213       0.84336732        8 
O       1.88707631      -0.10196288      -1.07637062        8 
O       0.10236734       1.80344575      -0.61161114        8 
O      -1.44068780       2.49599555       0.85465843        8 
C       0.19914746       3.13584000      -1.14056005        6 
C       3.91363884      -0.90367031       0.42159910        6 
C      -0.49759738      -1.96452405      -0.42180232        6 
C      -0.79478392      -1.24600374      -1.72679215        6 
C      -1.77717773      -0.37211219      -1.48754252        6 
C      -2.13383954      -0.47923602      -0.01543140        6 
C      -1.90435426      -1.98819945       0.20706067        6 
C      -1.23447786       0.17010702       2.32098868        6 
H      -0.75519236       3.44226141      -1.57282443        1 
H       4.14070003       0.15125629       0.25874603        1 
H      -2.16571861       0.37637443      -2.16520502        1 
H       0.96898354       3.07990911      -1.90677243        1 
H       0.47942883       3.84121835      -0.35712092        1 
H       4.51877018      -1.30469873       1.23203043        1 
H       4.09782549      -1.45381361      -0.50302172        1 
H      -3.08917998      -0.05488871       0.28952683        1 
H       0.03522971      -2.91227667      -0.49830896        1 
H      -1.44908679      -0.83120626       2.69522459        1 
H      -0.38311550       0.56192886       2.88454395        1 
H      -2.09100242       0.81288979       2.52085564        1 
H      -2.60452553      -2.59668737      -0.36773120        1 
H      -1.92119851      -2.30388354       1.25162511        1 
H      -0.21936383      -1.35218020      -2.63497605        1 
H       0.41560522      -1.43202129       1.48918589        1 
