32
Lattice="0.0 0.0 0.0 0.0 0.0 0.0 0.0 0.0 0.0" Properties=species:S:1:pos:R:3:Z:I:1 pbc="F F F"
C      -0.01018889       0.91958865       0.89047557        6 
C       1.13259760      -0.15552982       0.58352218        6 
C      -1.44178550       0.42688400       0.79996227        6 
C       0.58898293      -1.53367386       0.17556674        6 
O      -2.18125885       1.10973086      -0.10092959        8 
O      -1.90022382      -0.44599920       1.49575372        8 
O       0.35710528      -1.65915954      -1.14835580        8 
O       0.35461267      -2.42152926       0.95610824        8 
C      -0.22575943      -2.90702570      -1.56728424        6 
C      -3.56032850       0.71318682      -0.21105729        6 
C       0.38208548       2.13000340      -0.02828579        6 
C       0.19666487       1.71714302      -1.47994353        6 
C       1.14454886       0.82167696      -1.76426100        6 
C       1.98052479       0.61637799      -0.50814599        6 
C       1.92260616       2.05756494       0.06265637        6 
C       1.97416390      -0.41344918       1.85173605        6 
H       0.44332502      -3.73830705      -1.34001566        1 
H      -4.07296481       0.83969338       0.74375768        1 
H       1.25926867       0.25506462      -2.67621074        1 
H      -0.36823146      -2.81176043      -2.64194459        1 
H      -1.17933265      -3.06721204      -1.06235257        1 
H      -3.98965465       1.36637769      -0.96770403        1 
H      -3.63309785      -0.33107176      -0.51909438        1 
H       2.96525434       0.17274144      -0.65549137        1 
H      -0.09593066       3.06213517       0.26947938        1 
H       2.37678394       0.51376115       2.25875430        1 
H       1.36330228      -0.89605386       2.61433478        1 
H       2.81130791      -1.07933262       1.62577882        1 
H       2.40807021       2.77785209      -0.59659618        1 
H       2.31598557       2.16862401       1.07399350        1 
H      -0.62310853       2.03178302      -2.10875538        1 
H       0.10287988       1.20700943       1.93947744        1 
