32
Lattice="0.0 0.0 0.0 0.0 0.0 0.0 0.0 0.0 0.0" Properties=species:S:1:pos:R:3:Z:I:1 pbc="F F F"
C      -0.53074088      -0.96565661       0.68457416        6 
C      -0.72401160       0.61095237       0.77114209        6 
C       0.77130790      -1.55284748       0.17778190        6 
C       0.47541098       1.44100237       0.28801400        6 
O       1.84138669      -0.84142905       0.58002311        8 
O       0.85760484      -2.59600308      -0.42451531        8 
O       0.68467926       1.34971523      -1.04086510        8 
O       1.18277571       2.09981240       1.01034734        8 
C       1.84985184       2.02216716      -1.54400176        6 
C       3.13152375      -1.35131893       0.19857134        6 
C      -1.77410157      -1.45532117      -0.13932185        6 
C      -1.59232345      -0.96004235      -1.56461648        6 
C      -1.74951789       0.36617754      -1.54621069        6 
C      -2.04035688       0.78099419      -0.10970990        6 
C      -2.84813547      -0.46029218       0.34846459        6 
C      -0.98003661       1.04049769       2.22802817        6 
H       1.79810917       3.09248643      -1.33979456        1 
H       3.21028706      -1.40685642      -0.88845013        1 
H      -1.60171457       1.05450124      -2.36524357        1 
H       1.85109672       1.83489213      -2.61605206        1 
H       2.74962250       1.61293919      -1.08136329        1 
H       3.85107744      -0.64294088       0.60287480        1 
H       3.28861848      -2.34501214       0.62037305        1 
H      -2.50231032       1.75943038       0.02264501        1 
H      -1.97300328      -2.51813636      -0.01885778        1 
H      -1.80396139       0.47988183       2.66841592        1 
H      -0.08769148       0.87766410       2.83373575        1 
H      -1.22031609       2.10456944       2.28156004        1 
H      -3.78356557      -0.56491554      -0.20268960        1 
H      -3.05205641      -0.50784222       1.41872477        1 
H      -1.28235418      -1.57889943      -2.39489632        1 
H      -0.60955842      -1.34847224       1.70875633        1 
