32
Lattice="0.0 0.0 0.0 0.0 0.0 0.0 0.0 0.0 0.0" Properties=species:S:1:pos:R:3:Z:I:1 pbc="F F F"
C      -0.81291756       0.40299568       0.61902989        6 
C       0.75338902       0.52870587       0.60135663        6 
C      -1.44046249      -0.93523062       0.30571465        6 
C       1.46181972      -0.49063838      -0.30382317        6 
O      -2.78983149      -0.81236903       0.26484686        8 
O      -0.87168296      -1.98448288       0.14119423        8 
O       2.56734309      -1.00319692       0.28492083        8 
O       1.12876887      -0.79396868      -1.42069833        8 
C       3.28008687      -1.98477433      -0.48771097        6 
C      -3.52503313      -2.02731357       0.02971911        6 
C      -1.33412729       1.69667565      -0.11019781        6 
C      -0.85233351       1.68608196      -1.54699383        6 
C       0.47066670       1.87045286      -1.52977245        6 
C       0.90221018       1.97947557      -0.07384079        6 
C      -0.33615985       2.70926936       0.49905370        6 
C       1.32193707       0.51663938       2.02790923        6 
H       2.63028262      -2.83211297      -0.71150151        1 
H      -3.33386965      -2.74906573       0.82571238        1 
H       1.14523111       1.80976081      -2.37179164        1 
H       4.11615961      -2.29352472       0.13637582        1 
H       3.63749905      -1.55210328      -1.42363503        1 
H      -4.57294097      -1.73501123       0.02200169        1 
H      -3.24030830      -2.46655725      -0.92730440        1 
H       1.88104199       2.41992997       0.11312197        1 
H      -2.39541981       1.87244487       0.05156306        1 
H       0.81342124       1.25701364       2.64842558        1 
H       1.18540351      -0.46405035       2.48905059        1 
H       2.38920950       0.73967564       2.03322373        1 
H      -0.45013468       3.70928592       0.07884377        1 
H      -0.36771851       2.76496025       1.58947566        1 
H      -1.46697467       1.44786477      -2.40457493        1 
H      -1.10786171       0.53961033       1.66801934        1 
