32
Lattice="0.0 0.0 0.0 0.0 0.0 0.0 0.0 0.0 0.0" Properties=species:S:1:pos:R:3:Z:I:1 pbc="F F F"
C      -0.76341382       0.54201110       0.62574463        6 
C       0.80041144       0.26034392       0.65694353        6 
C      -1.72934446      -0.36853775      -0.10428669        6 
C       1.32042648      -0.85663755      -0.25619711        6 
O      -2.67236158      -0.81495583       0.77471297        8 
O      -1.73591986      -0.66860790      -1.26796738        8 
O       2.24148227      -1.63112937       0.37641260        8 
O       1.01045388      -1.04608248      -1.40243136        8 
C       2.81095178      -2.68772750      -0.41572829        6 
C      -3.69561169      -1.65742256       0.21683664        6 
C      -0.85036772       2.01820465       0.05331637        6 
C      -0.35369102       1.99780276      -1.37922354        6 
C       0.96639535       1.79503659      -1.34139483        6 
C       1.36709995       1.65821329       0.11685180        6 
C       0.36809331       2.64680152       0.75841369        6 
C       1.24139891       0.02388622       2.11536278        6 
H       2.03315709      -3.37700554      -0.74864548        1 
H      -3.25709685      -2.56038494      -0.21171685        1 
H       1.61892938       1.60742666      -2.18189824        1 
H       3.51693931      -3.19294534       0.24016125        1 
H       3.32082527      -2.28070628      -1.29057081        1 
H      -4.35203263      -1.90733605       1.04777368        1 
H      -4.24691156      -1.12727792      -0.56196983        1 
H       2.42454691       1.78517960       0.34785247        1 
H      -1.82455463       2.47453349       0.22862284        1 
H       0.88688779       0.82827489       2.76090328        1 
H       0.83696417      -0.91578166       2.49848933        1 
H       2.32724689      -0.02687135       2.19451701        1 
H       0.54744583       3.67268502       0.43453459        1 
H       0.32100059       2.60941200       1.84767651        1 
H      -0.98748683       2.00714692      -2.25404478        1 
H      -1.10028117       0.56142751       1.66118889        1 
