32
Lattice="0.0 0.0 0.0 0.0 0.0 0.0 0.0 0.0 0.0" Properties=species:S:1:pos:R:3:Z:I:1 pbc="F F F"
C      -0.22042089      -1.08670654       0.53404964        6 
C      -0.80125552       0.36282326       0.81136256        6 
C       1.17657788      -1.23376468      -0.02917971        6 
C      -0.12106961       1.56995875       0.16475611        6 
O       2.09595338      -0.98053665       0.93118447        8 
O       1.46310922      -1.58117553      -1.14769453        8 
O       0.98816608       1.28016038      -0.52979005        8 
O      -0.56939052       2.68983216       0.25269486        8 
C       1.59805201       2.36034192      -1.25817928        6 
C       3.46861448      -1.02300472       0.50994852        6 
C      -1.32690820      -1.75945977      -0.34480522        6 
C      -1.43562497      -0.98055023      -1.64720260        6 
C      -1.99841749       0.19890624      -1.36573019        6 
C      -2.24162255       0.23929133       0.13734243        6 
C      -2.58152139      -1.24311169       0.39346527        6 
C      -0.89937372       0.64728185       2.32109489        6 
H       0.88633897       2.78352970      -1.96820503        1 
H       3.65093559      -0.26606350      -0.25515473        1 
H      -2.14539132       1.03741956      -2.03369676        1 
H       2.43942466       1.91285783      -1.78257776        1 
H       1.93498724       3.14066326      -0.57454671        1 
H       4.05549101      -0.81326105       1.40170322        1 
H       3.71814483      -2.00588713       0.10749444        1 
H      -2.93171510       0.99875578       0.49922505        1 
H      -1.20269406      -2.83721346      -0.44045653        1 
H      -1.51706672      -0.10660976       2.81333497        1 
H       0.09078754       0.62672401       2.78428179        1 
H      -1.34303617       1.62878211       2.49443868        1 
H      -3.50974394      -1.53996326      -0.09709377        1 
H      -2.62055856      -1.52357002       1.44912931        1 
H      -1.02642170      -1.31027605      -2.59101570        1 
H      -0.19430332      -1.59587146       1.50104324        1 
