32
Lattice="0.0 0.0 0.0 0.0 0.0 0.0 0.0 0.0 0.0" Properties=species:S:1:pos:R:3:Z:I:1 pbc="F F F"
C      -0.58629202       0.65872097      -0.93722473        6 
C      -0.74464874      -0.85267104      -0.46422673        6 
C       0.79373673       1.26789251      -0.81238091        6 
C       0.39097209      -1.37547291       0.41799138        6 
O       1.06862145       1.69303130       0.43882321        8 
O       1.58851943       1.32781527      -1.71934586        8 
O       1.56234259      -1.36423583      -0.25025964        8 
O       0.28442834      -1.78285724       1.54838627        8 
C       2.71437277      -1.83980842       0.46563757        6 
C       2.39477677       2.20487979       0.65312480        6 
C      -1.79388938       1.38074783      -0.24400898        6 
C      -1.64079869       1.30051625       1.26690793        6 
C      -1.83486376       0.02847674       1.62461881        6 
C      -2.09887420      -0.76938948       0.35420746        6 
C      -2.87259896       0.29247171      -0.46300781        6 
C      -0.85873487      -1.80243283      -1.67304335        6 
H       2.88157329      -1.23876416       1.36125033        1 
H       2.56672975       3.09360081       0.04357746        1 
H      -1.71210459      -0.40689973       2.60452362        1 
H       3.54599899      -1.73781933      -0.22788760        1 
H       2.57930908      -2.88272439       0.75650310        1 
H       2.44353721       2.45029012       1.71179796        1 
H       3.13799086       1.44825877       0.39671116        1 
H      -2.56638286      -1.74455538       0.48662425        1 
H      -1.98858601       2.36885001      -0.66084856        1 
H      -1.72428167      -1.54370375      -2.28622524        1 
H       0.03492505      -1.74372630      -2.29548927        1 
H      -0.98137356      -2.83675386      -1.33859046        1 
H      -3.82764177       0.55013902      -0.00405870        1 
H      -3.03130882       0.03270397      -1.51263732        1 
H      -1.32861946       2.12076902       1.89691115        1 
H      -0.76627644       0.66913969      -2.01443430        1 
