32
Lattice="0.0 0.0 0.0 0.0 0.0 0.0 0.0 0.0 0.0" Properties=species:S:1:pos:R:3:Z:I:1 pbc="F F F"
C      -0.74226042       0.91932996       0.42389632        6 
C       0.58247275       0.14665323       0.76549077        6 
C      -1.96540705       0.20224254      -0.10366258        6 
C       0.85964273      -1.06750901      -0.12999319        6 
O      -2.20219688      -0.92628542       0.59185520        8 
O      -2.76499988       0.69251668      -0.86590826        8 
O       2.18982807      -1.34110860      -0.14133662        8 
O       0.05658247      -1.78747897      -0.66592625        8 
C       2.58106823      -2.50993788      -0.88171371        6 
C      -3.36452659      -1.67910724       0.21014421        6 
C      -0.28236563       2.20925395      -0.30594453        6 
C       0.50354847       1.82264882      -1.54744268        6 
C       1.66992681       1.30650696      -1.14432570        6 
C       1.65334707       1.27771605       0.38262604        6 
C       0.87828816       2.58689981       0.64876450        6 
C       0.65515356      -0.30553740       2.22959054        6 
H       2.10335623      -3.40159842      -0.47240418        1 
H      -3.24907713      -2.05092061      -0.80933262        1 
H       2.44002298       0.86273036      -1.75985221        1 
H       3.66227241      -2.57210850      -0.77724860        1 
H       2.30158411      -2.40733347      -1.93174454        1 
H      -3.41497247      -2.51007106       0.91043941        1 
H      -4.26361681      -1.06417193       0.27407377        1 
H       2.61409866       1.13870412       0.87353232        1 
H      -1.08464979       2.93000882      -0.44659501        1 
H       0.56934171       0.55682663       2.89531463        1 
H      -0.16141845      -0.99525278       2.45452459        1 
H       1.60531578      -0.80311710       2.43437484        1 
H       1.43255850       3.46458795       0.31354043        1 
H       0.56593678       2.72708403       1.68729970        1 
H       0.12553859       1.89001770      -2.55866882        1 
H      -1.12372468       1.25810369       1.39737023        1 
