32
Lattice="0.0 0.0 0.0 0.0 0.0 0.0 0.0 0.0 0.0" Properties=species:S:1:pos:R:3:Z:I:1 pbc="F F F"
C      -0.66594210       0.60506713      -0.92635260        6 
C      -0.66047617      -0.91063418      -0.45227675        6 
C       0.58131548       1.44346958      -0.76118227        6 
C       0.57318081      -1.30829230       0.36233172        6 
O       1.09657503       1.38624857       0.48177899        8 
O       1.05167219       2.12561667      -1.64187665        8 
O       1.65282002      -1.43332855      -0.44428285        8 
O       0.62963943      -1.47406234       1.55403598        8 
C       2.89697200      -1.72532273       0.21334528        6 
C       2.28455875       2.15988027       0.71758669        6 
C      -1.94381838       1.19942970      -0.21026252        6 
C      -1.72577196       1.17066486       1.29270056        6 
C      -1.75530208      -0.10774834       1.67838118        6 
C      -1.97610921      -0.95761607       0.43430117        6 
C      -2.89658505      -0.00657201      -0.36773818        6 
C      -0.76899311      -1.86125377      -1.66227366        6 
H       3.13720833      -0.94015050       0.93208228        1 
H       2.08604022       3.22244656       0.56863539        1 
H      -1.54607342      -0.50327641       2.66015382        1 
H       3.64240761      -1.76518320      -0.57797634        1 
H       2.83924823      -2.68146706       0.73565598        1 
H       2.55614393       1.96117031       1.75202252        1 
H       3.08167912       1.84868264       0.04011509        1 
H      -2.32861499      -1.97473711       0.60487838        1 
H      -2.25710909       2.14866763      -0.64383799        1 
H      -1.68974609      -1.68008415      -2.21930005        1 
H       0.07443721      -1.72613166      -2.33953317        1 
H      -0.77642829      -2.90408596      -1.33252064        1 
H      -3.85480984       0.15405903       0.12767178        1 
H      -3.06907108      -0.30131958      -1.40517939        1 
H      -1.48404929       2.03296007       1.89833810        1 
H      -0.85049737       0.62003354      -2.00172070        1 
