32
Lattice="0.0 0.0 0.0 0.0 0.0 0.0 0.0 0.0 0.0" Properties=species:S:1:pos:R:3:Z:I:1 pbc="F F F"
C      -0.77386111       0.43794379       0.76662201        6 
C       0.78416051       0.59676814       0.58041593        6 
C      -1.35690209      -0.92900342       0.49007604        6 
C       1.40226452      -0.49758700      -0.29926990        6 
O      -2.63261854      -0.84575099       0.05733013        8 
O      -0.78345540      -1.97552351       0.67064485        8 
O       2.57745222      -0.94477301       0.19294134        8 
O       0.94289926      -0.89930514      -1.33994843        8 
C       3.21394957      -1.98630977      -0.56882096        6 
C      -3.29064978      -2.09932407      -0.20763799        6 
C      -1.39108070       1.68790207       0.04852104        6 
C      -1.09645643       1.58069636      -1.43554013        6 
C       0.21699227       1.76329793      -1.59631077        6 
C       0.82579937       1.98473199      -0.21902332        6 
C      -0.34067227       2.74644676       0.45538150        6 
C       1.50213842       0.70460765       1.93388192        6 
H       2.55892781      -2.85596083      -0.63685673        1 
H      -3.32804195      -2.71023722       0.69554625        1 
H       0.78438385       1.64122342      -2.50806623        1 
H       4.12292650      -2.22956905      -0.02274038        1 
H       3.45057587      -1.63620808      -1.57490627        1 
H      -4.29409291      -1.83567178      -0.53491138        1 
H      -2.76072539      -2.64493982      -0.98965375        1 
H       1.81333611       2.44519752      -0.19523424        1 
H      -2.42661855       1.87189014       0.32718183        1 
H       1.05745714       1.49223146       2.54413394        1 
H       1.42441723      -0.23556388       2.48424324        1 
H       2.56123911       0.92802354       1.80285249        1 
H      -0.52246557       3.71384982      -0.01432814        1 
H      -0.23449951       2.87716255       1.53418973        1 
H      -1.81341781       1.28008486      -2.18696412        1 
H      -0.96995198       0.56251605       1.83980204        1 
