32
Lattice="0.0 0.0 0.0 0.0 0.0 0.0 0.0 0.0 0.0" Properties=species:S:1:pos:R:3:Z:I:1 pbc="F F F"
C      -0.76772797      -0.33312004      -0.69608116        6 
C       0.76861275      -0.67346970      -0.56868204        6 
C      -1.25069445       1.02781377      -0.24850810        6 
C       1.56652968       0.29140083       0.32996367        6 
O      -2.59244809       1.10890439      -0.41674673        8 
O      -0.58850018       1.93574166       0.18704945        8 
O       2.39807041       1.07013070      -0.39428827        8 
O       1.47057645       0.38755665       1.52700201        8 
C       3.07084668       2.10759605       0.33960399        6 
C      -3.20506028       2.35425439      -0.03658399        6 
C      -1.50663813      -1.56919359      -0.05664159        6 
C      -1.18300632      -1.59813273       1.42528981        6 
C       0.10887610      -1.91930645       1.54275569        6 
C       0.67102090      -2.10544324       0.13606699        6 
C      -0.57970382      -2.69663419      -0.55853731        6 
C       1.41728534      -0.78860922      -1.95941927        6 
H       2.33632153       2.76226118       0.81044503        1 
H      -2.79847681       3.17698587      -0.62690676        1 
H       0.69704069      -1.93971904       2.44728199        1 
H       3.65710124       2.65074272      -0.39885983        1 
H       3.71877136       1.67940601       1.10593278        1 
H      -4.26670986       2.22759700      -0.23789158        1 
H      -3.03618732       2.55464901       1.02249283        1 
H       1.60106983      -2.66962038       0.06310772        1 
H      -2.55726959      -1.61618786      -0.33563883        1 
H       0.89895042      -1.53169979      -2.56680965        1 
H       1.38378131       0.16599596      -2.48639589        1 
H       2.46458857      -1.08618828      -1.87946499        1 
H      -0.85359579      -3.66983955      -0.14923311        1 
H      -0.51241595      -2.76871129      -1.64598057        1 
H      -1.85800397      -1.29478093       2.21427581        1 
H      -1.01099279      -0.35173548      -1.76566852        1 
