32
Lattice="0.0 0.0 0.0 0.0 0.0 0.0 0.0 0.0 0.0" Properties=species:S:1:pos:R:3:Z:I:1 pbc="F F F"
C       0.20590256      -0.89744697       0.75837065        6 
C      -1.12806381      -0.05842824       0.65099350        6 
C       1.50564714      -0.12560073       0.69631433        6 
C      -0.99121080       1.38547385       0.15589090        6 
O       2.47579546      -0.82658568       0.07321795        8 
O       1.68325711       0.96679836       1.17862378        8 
O      -0.14807451       1.51532342      -0.88522382        8 
O      -1.62171196       2.31268335       0.60502377        8 
C       0.06038981       2.85331322      -1.36475622        6 
C       3.76182568      -0.18498200      -0.00838041        6 
C      -0.00274736      -2.09457337      -0.23350348        6 
C      -0.06356766      -1.53800136      -1.64450350        6 
C      -1.21001762      -0.86083160      -1.75723219        6 
C      -1.93069374      -0.94175817      -0.41960290        6 
C      -1.50494308      -2.36700319       0.00909913        6 
C      -1.87688624      -0.01550435       1.99247629        6 
H      -0.87876110       3.28982991      -1.70813726        1 
H       4.16002648       0.00330155       0.98967572        1 
H      -1.52785573      -0.25097611      -2.59158997        1 
H       0.76269701       2.75786603      -2.19051681        1 
H       0.48060827       3.47381784      -0.57222648        1 
H       4.39866282      -0.88023718      -0.55099021        1 
H       3.67887059       0.76093670      -0.54565431        1 
H      -2.99553308      -0.71132888      -0.42581690        1 
H       0.69015194      -2.91675422      -0.06674427        1 
H      -2.03073622      -1.02105556       2.38688032        1 
H      -1.30814088       0.55745187       2.72795091        1 
H      -2.84747779       0.46787891       1.87737604        1 
H      -1.90162033      -3.13116413      -0.66095914        1 
H      -1.75259719      -2.62530179       1.04031032        1 
H       0.74249854      -1.58984056      -2.36323765        1 
H       0.22296106      -1.31744368       1.77181739        1 
