32
Lattice="0.0 0.0 0.0 0.0 0.0 0.0 0.0 0.0 0.0" Properties=species:S:1:pos:R:3:Z:I:1 pbc="F F F"
C       0.64814495      -0.68935525      -0.84385145        6 
C       0.50451189       0.86872415      -0.54432262        6 
C      -0.30901476      -1.74277014      -0.30066089        6 
C      -0.69955006       1.35492530       0.26729686        6 
O      -1.56106929      -1.31252031      -0.08522842        8 
O       0.02772018      -2.89034143      -0.12037625        8 
O      -1.83780526       1.33993664      -0.45153986        8 
O      -0.63298338       1.85628101       1.36538392        8 
C      -3.01690703       1.80401348       0.22088387        6 
C      -2.50283995      -2.29993706       0.37530196        6 
C       2.09246122      -1.01059475      -0.28987826        6 
C       1.97654296      -0.91164439       1.22732853        6 
C       1.82162637       0.38092066       1.53034656        6 
C       1.84662134       1.16493344       0.22316499        6 
C       2.84145399       0.29989645      -0.58685370        6 
C       0.45100351       1.65285167      -1.88163455        6 
H      -3.23557903       1.17279536       1.08459615        1 
H      -2.19029098      -2.70462481       1.33869022        1 
H       1.60935566       0.81528277       2.49572511        1 
H      -3.81677656       1.73481558      -0.51362137        1 
H      -2.89094471       2.83457214       0.55652410        1 
H      -3.44938097      -1.77169458       0.46832785        1 
H      -2.58516445      -3.11308853      -0.34707107        1 
H       2.05064495       2.23107213       0.30991793        1 
H       2.50196815      -1.93697077      -0.68494278        1 
H       1.32609726       1.44525194      -2.49780752        1 
H      -0.44019492       1.38724485      -2.45041562        1 
H       0.42228465       2.72981733      -1.69271666        1 
H       3.84163888       0.30782431      -0.15170022        1 
H       2.91067439       0.54703666      -1.64727506        1 
H       1.91500324      -1.76206513       1.89222236        1 
H       0.62436642      -0.82773355      -1.93024155        1 
