32
Lattice="0.0 0.0 0.0 0.0 0.0 0.0 0.0 0.0 0.0" Properties=species:S:1:pos:R:3:Z:I:1 pbc="F F F"
C      -0.24156048      -0.89329323       0.86948031        6 
C      -1.03611238       0.46110923       0.61308121        6 
C       1.25817109      -1.14951425       0.84205808        6 
C      -0.35856808       1.74697285       0.12978248        6 
O       1.90125389      -0.79138751      -0.27835429        8 
O       1.78464821      -1.82817152       1.69921231        8 
O       0.86790191       1.59283394      -0.37299225        8 
O      -0.91459682       2.82208032       0.18285732        8 
C       1.49255973       2.77325434      -0.90621511        6 
C       3.27521531      -1.20138419      -0.37135517        6 
C      -0.92466470      -1.88193799      -0.18059889        6 
C      -0.59936578      -1.37647462      -1.57711974        6 
C      -1.29665848      -0.25266379      -1.77012954        6 
C      -2.08596786       0.01605924      -0.50188745        6 
C      -2.39407947      -1.43171151      -0.06301911        6 
C      -1.77702855       0.84872433       1.91562198        6 
H       0.89740810       3.18214828      -1.72428463        1 
H       3.35792351      -2.28817030      -0.31734556        1 
H      -1.23206505       0.42240233      -2.61319890        1 
H       2.46458698       2.44352247      -1.26677225        1 
H       1.60411877       3.53299231      -0.13143528        1 
H       3.61861694      -0.83750426      -1.33785485        1 
H       3.86217979      -0.75969614       0.43548282        1 
H      -2.91462322       0.71772177      -0.57947593        1 
H      -0.69838622      -2.92762362       0.02453732        1 
H      -2.36012280       0.01041762       2.29814482        1 
H      -1.06419811       1.13954216       2.69229984        1 
H      -2.44472861       1.69056778       1.73591185        1 
H      -3.04238705      -1.94481765      -0.77526436        1 
H      -2.80838431      -1.52773707       0.94130183        1 
H       0.14749035      -1.80376639      -2.23075958        1 
H      -0.52194181      -1.23382587       1.86490507        1 
