32
Lattice="0.0 0.0 0.0 0.0 0.0 0.0 0.0 0.0 0.0" Properties=species:S:1:pos:R:3:Z:I:1 pbc="F F F"
C      -0.40946146       1.00626023       0.45651361        6 
C       0.83870076       0.12784313       0.90261543        6 
C      -1.55899003       0.26916230      -0.18880165        6 
C       0.66458878      -1.35704012       0.55084879        6 
O      -2.72489971       0.57020564       0.42726384        8 
O      -1.49082857      -0.47443084      -1.13837176        8 
O       1.18173811      -1.71374655      -0.63110163        8 
O       0.16222999      -2.15410818       1.31089440        8 
C       0.92575503      -3.06445922      -1.05424941        6 
C      -3.90092386      -0.06913148      -0.10421116        6 
C       0.22902355       2.10769362      -0.47296101        6 
C       0.77197506       1.44043381      -1.72309961        6 
C       1.84032831       0.72688582      -1.36110796        6 
C       2.01543364       0.88166304       0.14243083        6 
C       1.54877576       2.35164304       0.29372051        6 
C       1.02620631       0.19485858       2.42964882        6 
H       1.32319178      -3.77767603      -0.33097882        1 
H      -3.80107737      -1.15380240      -0.04481668        1 
H       2.42000020       0.06044194      -1.98106409        1 
H       1.42869355      -3.16575414      -2.01374981        1 
H      -0.14824842      -3.21550504      -1.16846834        1 
H      -4.72383887       0.27517279       0.51819582        1 
H      -4.05727768       0.22127883      -1.14436971        1 
H       2.99704455       0.62507078       0.54019940        1 
H      -0.43182287       2.96140377      -0.62337427        1 
H       1.12204430       1.22574814       2.77098625        1 
H       0.17763848      -0.26274727       2.93867610        1 
H       1.92527992      -0.35036926       2.72834260        1 
H       2.20510330       3.04657616      -0.23121525        1 
H       1.40984107       2.68813267       1.32257592        1 
H       0.29658916       1.46253332      -2.69359856        1 
H      -0.80964735       1.49630842       1.34419530        1 
