32
Lattice="0.0 0.0 0.0 0.0 0.0 0.0 0.0 0.0 0.0" Properties=species:S:1:pos:R:3:Z:I:1 pbc="F F F"
C       0.79529762      -0.61930792      -0.77838747        6 
C       0.40040148       0.89837065      -0.53978249        6 
C      -0.10937465      -1.77511574      -0.40450616        6 
C      -0.85025223       1.12841983       0.32454228        6 
O      -1.36442080      -1.41390394      -0.08778080        8 
O       0.24558882      -2.92821383      -0.48141366        8 
O      -1.90511167       1.52793640      -0.41999768        8 
O      -0.92350621       0.99394940       1.52074553        8 
C      -3.14109134       1.70372809       0.28891428        6 
C      -2.27434086      -2.48120412       0.23710599        6 
C       2.22834108      -0.75187776      -0.14448481        6 
C       2.07570015      -0.59319176       1.35784126        6 
C       1.76102387       0.68413522       1.59251167        6 
C       1.69580810       1.39930965       0.24678951        6 
C       2.80973583       0.63008841      -0.50493096        6 
C       0.25822380       1.63079090      -1.88813493        6 
H      -3.44125633       0.76794968       0.76344297        1 
H      -1.89839216      -3.05391401       1.08547854        1 
H       1.48731781       1.12862160       2.53691935        1 
H      -3.86789997       2.00294277      -0.46361380        1 
H      -3.04110438       2.47427575       1.05504255        1 
H      -3.21289793      -1.99352890       0.49045509        1 
H      -2.40345719      -3.14543712      -0.61870730        1 
H       1.76689549       2.48682680       0.27628403        1 
H       2.75526454      -1.63653003      -0.49470104        1 
H       1.16382180       1.52145867      -2.48581883        1 
H      -0.57827626       1.23159342      -2.46266331        1 
H       0.07834152       2.69730330      -1.73594327        1 
H       3.79165834       0.79249949      -0.05914084        1 
H       2.86236413       0.82808105      -1.57716714        1 
H       2.10618883      -1.40642126       2.07026207        1 
H       0.90541266      -0.74684645      -1.86204657        1 
