32
Lattice="0.0 0.0 0.0 0.0 0.0 0.0 0.0 0.0 0.0" Properties=species:S:1:pos:R:3:Z:I:1 pbc="F F F"
C      -0.76997679       0.54393022       0.91447665        6 
C       0.77181789       0.62256429       0.52732672        6 
C      -1.50613638      -0.77792124       0.78675525        6 
C       1.31242916      -0.59807805      -0.21961087        6 
O      -1.99297406      -1.02018229      -0.43740867        8 
O      -1.74544673      -1.48329662       1.74318201        8 
O       2.58829528      -0.88322296       0.13318407        8 
O       0.73241701      -1.22099504      -1.07443539        8 
C       3.19948882      -1.98134866      -0.56693241        6 
C      -2.68025967      -2.26875006      -0.61673741        6 
C      -1.39409714       1.74121347       0.09134432        6 
C      -1.25112713       1.45100679      -1.39370240        6 
C       0.04357645       1.55229717      -1.70328030        6 
C       0.79015936       1.89935649      -0.42932088        6 
C      -0.27148069       2.78725250       0.26301596        6 
C       1.60415229       0.88359086       1.79980328        6 
H       2.63931553      -2.90179365      -0.39561975        1 
H      -3.53318058      -2.34082122       0.05986878        1 
H       0.50954907       1.30464841      -2.64684354        1 
H       4.20397966      -2.06187757      -0.15703711        1 
H       3.23543123      -1.77995130      -1.63879828        1 
H      -3.00791498      -2.27094501      -1.65416553        1 
H      -1.99982102      -3.10138959      -0.43254206        1 
H       1.79406575       2.30792396      -0.54477614        1 
H      -2.39143802       2.01400866       0.43580024        1 
H       1.21069462       1.74262501       2.34327281        1 
H       1.56693899       0.02041072       2.46798440        1 
H       2.64874481       1.07697763       1.55637154        1 
H      -0.46653137       3.70067848      -0.30035520        1 
H      -0.04926540       3.04049033       1.30106352        1 
H      -2.05035417       1.10932642      -2.03378557        1 
H      -0.84283567       0.77584326       1.97656994        1 
