32
Lattice="0.0 0.0 0.0 0.0 0.0 0.0 0.0 0.0 0.0" Properties=species:S:1:pos:R:3:Z:I:1 pbc="F F F"
C       0.71685069      -0.63971482      -0.84191795        6 
C       0.46222314       0.89959347      -0.53272025        6 
C      -0.21604862      -1.73213161      -0.34994821        6 
C      -0.77822643       1.22654617       0.30817341        6 
O      -1.47444210      -1.31979380      -0.12108317        8 
O       0.12891099      -2.88459754      -0.23430620        8 
O      -1.86839414       1.43389188      -0.45892004        8 
O      -0.79527750       1.37325892       1.50657328        8 
C      -3.08881808       1.70312522       0.24582334        6 
C      -2.40974112      -2.32889115       0.30414074        6 
C       2.16805743      -0.88752987      -0.27576228        6 
C       2.04402424      -0.81357437       1.23963694        6 
C       1.80805971       0.46331721       1.55584284        6 
C       1.78308981       1.26388111       0.25791430        6 
C       2.83393713       0.47138497      -0.55753243        6 
C       0.37515068       1.69911776      -1.85326129        6 
H      -3.33149721       0.87483485       0.91386783        1 
H      -2.10248252      -2.75027830       1.26194844        1 
H       1.56900331       0.86846919       2.52686449        1 
H      -3.85105489       1.81148815      -0.52327651        1 
H      -3.00324785       2.61946304       0.83221714        1 
H      -3.36409040      -1.81559687       0.39921073        1 
H      -2.47325459      -3.12557136      -0.43805730        1 
H       1.92465229       2.33990160       0.35702210        1 
H       2.63263208      -1.78200626      -0.68380284        1 
H       1.26889420       1.55460757      -2.46043729        1 
H      -0.48985395       1.39092463      -2.44031243        1 
H       0.27645955       2.76873889      -1.64949205        1 
H       3.82996627       0.53919155      -0.11817321        1 
H       2.88971186       0.73297918      -1.61513492        1 
H       2.02990126      -1.67245730       1.89632579        1 
H       0.72467388      -0.76283460      -1.93113950        1 
