32
Lattice="0.0 0.0 0.0 0.0 0.0 0.0 0.0 0.0 0.0" Properties=species:S:1:pos:R:3:Z:I:1 pbc="F F F"
C      -0.83951528      -0.42613736      -0.53210878        6 
C       0.71794645      -0.35397154      -0.67472741        6 
C      -1.65123463       0.82451144      -0.27461701        6 
C       1.41093359       0.68202691       0.21624374        6 
O      -2.96512860       0.48335935      -0.18495676        8 
O      -1.26308529       1.95847338      -0.17868221        8 
O       2.67679027       0.91460303      -0.21870275        8 
O       0.96544232       1.19624888       1.20737062        8 
C       3.44451061       1.83587281       0.57425148        6 
C      -3.88422683       1.56868286       0.02696131        6 
C      -1.11766959      -1.73717248       0.28660759        6 
C      -0.44422246      -1.64179891       1.64465767        6 
C       0.87593903      -1.70841014       1.44650220        6 
C       1.10935773      -1.79494402      -0.05611474        6 
C      -0.11137172      -2.65411656      -0.45215091        6 
C       1.14506856      -0.22589431      -2.14358211        6 
H       2.95672464       2.81138974       0.60193192        1 
H      -3.85123156       2.26938670      -0.80938193        1 
H       1.65382094      -1.56956844       2.18500116        1 
H       4.41327980       1.90426879       0.08357286        1 
H       3.55536100       1.46466429       1.59463317        1 
H      -4.86694972       1.10677104       0.09790033        1 
H      -3.64303659       2.10107046       0.94831294        1 
H       2.09541702      -2.12741714      -0.37825412        1 
H      -2.16649460      -2.02473722       0.27765041        1 
H       0.69781255      -1.02445645      -2.74012237        1 
H       0.81301584       0.73079711      -2.55661116        1 
H       2.22770186      -0.28062176      -2.24741014        1 
H      -0.05964387      -3.65583197      -0.02352621        1 
H      -0.28723577      -2.72691950      -1.52816920        1 
H      -0.95716316      -1.44774826       2.57682310        1 
H      -1.19580468      -0.68010535      -1.54000743        1 
