32
Lattice="0.0 0.0 0.0 0.0 0.0 0.0 0.0 0.0 0.0" Properties=species:S:1:pos:R:3:Z:I:1 pbc="F F F"
C      -0.74362747       0.30895270       0.91542416        6 
C       0.68058164       0.86420389       0.47552396        6 
C      -0.97616195      -1.15725822       0.61394562        6 
C       1.44481248      -0.14726495      -0.38991679        6 
O      -2.15156011      -1.38557345       0.00202258        8 
O      -0.21418182      -2.03817915       0.93925698        8 
O       2.57729213      -0.57955327       0.19368748        8 
O       1.09604130      -0.52375178      -1.48412635        8 
C       3.28426555      -1.61593576      -0.51048382        6 
C      -2.44292063      -2.76008573      -0.31667626        6 
C      -1.75452387       1.34433964       0.30240964        6 
C      -1.70018487       1.22275985      -1.21134854        6 
C      -0.51240619       1.68709837      -1.60580264        6 
C       0.24408155       2.13991840      -0.36500582        6 
C      -0.94579070       2.64715855       0.48801662        6 
C       1.51156006       1.27228924       1.70515245        6 
H       2.65000006      -2.49848946      -0.60400587        1 
H      -2.48155909      -3.36290955       0.59182122        1 
H      -0.09420723       1.65015289      -2.60081828        1 
H       4.15911298      -1.83373059       0.09825842        1 
H       3.57915054      -1.27434684      -1.50374270        1 
H      -3.41291605      -2.74256332      -0.80852713        1 
H      -1.67924349      -3.16096198      -0.98428377        1 
H       1.07234376       2.82891893      -0.53128059        1 
H      -2.74283179       1.29663880       0.75678944        1 
H       0.97362032       2.00299375       2.31058752        1 
H       1.73032291       0.40535431       2.32967382        1 
H       2.46282855       1.71484680       1.40321371        1 
H      -1.43837503       3.50711310       0.03256088        1 
H      -0.69838384       2.87680098       1.52571766        1 
H      -2.44548430       0.72629428      -1.81561194        1 
H      -0.79115954       0.36723254       2.00776440        1 
