32
Lattice="0.0 0.0 0.0 0.0 0.0 0.0 0.0 0.0 0.0" Properties=species:S:1:pos:R:3:Z:I:1 pbc="F F F"
C      -0.24029030      -1.09940997       0.52158015        6 
C      -0.78699444       0.35349810       0.83174733        6 
C       1.16970876      -1.25931636       0.00033471        6 
C      -0.07495142       1.54601290       0.19251737        6 
O       2.06353592      -0.87876265       0.94298749        8 
O       1.48455414      -1.73112779      -1.06371130        8 
O       0.92161782       1.20771842      -0.63968127        8 
O      -0.42985643       2.68921709       0.36449105        8 
C       1.53682004       2.27276547      -1.38485315        6 
C       3.44544823      -0.93066328       0.55502059        6 
C      -1.34460932      -1.73005900      -0.38627059        6 
C      -1.42743511      -0.91802730      -1.66919646        6 
C      -1.97328466       0.26359547      -1.36490332        6 
C      -2.22541548       0.27479329       0.13701464        6 
C      -2.59659421      -1.20740285       0.35412397        6 
C      -0.89647587       0.61506517       2.34176249        6 
H       0.78794050       2.80159628      -1.97609934        1 
H       3.62534342      -0.26090834      -0.28811785        1 
H      -2.09787666       1.11984473      -2.01494884        1 
H       2.26230832       1.78621079      -2.03295719        1 
H       2.02705511       2.97636197      -0.71064962        1 
H       4.00681415      -0.60299037       1.42754187        1 
H       3.73026674      -1.94556033       0.27362066        1 
H      -2.90393397       1.03871617       0.51186375        1 
H      -1.23792314      -2.80691471      -0.50690803        1 
H      -1.54737407      -0.12462154       2.81256110        1 
H       0.08601271       0.55144544       2.81679022        1 
H      -1.30679822       1.60874624       2.52616773        1 
H      -3.52605112      -1.47364443      -0.15133733        1 
H      -2.65038322      -1.51226457       1.40236968        1 
H      -1.01376481      -1.23162761      -2.61685575        1 
H      -0.24424932      -1.63458038       1.47620420        1 
