32
Lattice="0.0 0.0 0.0 0.0 0.0 0.0 0.0 0.0 0.0" Properties=species:S:1:pos:R:3:Z:I:1 pbc="F F F"
C      -0.66670069       0.86582547       0.52798062        6 
C       0.75890566       0.26003540       0.85690126        6 
C      -1.63621535      -0.04209987      -0.19196751        6 
C       0.89234330      -1.19435979       0.41037485        6 
O      -2.82280837      -0.08494984       0.45322826        8 
O      -1.42188380      -0.63317276      -1.22274395        8 
O       1.91891441      -1.41068978      -0.42878729        8 
O       0.18715748      -2.07987337       0.83399652        8 
C       2.06272222      -2.76338118      -0.90387360        6 
C      -3.82767138      -0.93059129      -0.13641519        6 
C      -0.30886045       2.14461650      -0.33025156        6 
C       0.31173761       1.68273753      -1.63828673        6 
C       1.52051244       1.19003354      -1.35542457        6 
C       1.72107605       1.29609625       0.14829520        6 
C       0.95573412       2.61557902       0.41709100        6 
C       0.99378409       0.22698389       2.38414676        6 
H       2.26728985      -3.44088936      -0.07356392        1 
H      -3.47141665      -1.96043207      -0.18509917        1 
H       2.19614401       0.68685564      -2.03077549        1 
H       2.90218199      -2.73947301      -1.59549421        1 
H       1.15073326      -3.07737130      -1.41267889        1 
H      -4.69214450      -0.85360693       0.51958311        1 
H      -4.07677234      -0.58673196      -1.14168762        1 
H       2.74857385       1.22605277       0.50317561        1 
H      -1.14026320       2.84516592      -0.40764220        1 
H       0.89965828       1.22288439       2.81862949        1 
H       0.26853874      -0.43284242       2.86263995        1 
H       1.99651664      -0.14831132       2.60783182        1 
H       1.42823406       3.47242566      -0.06524033        1 
H       0.78764519       2.83814721       1.47259094        1 
H      -0.19903462       1.65898499      -2.59047367        1 
H      -1.14154876       1.18502059       1.45526427        1 
