32
Lattice="0.0 0.0 0.0 0.0 0.0 0.0 0.0 0.0 0.0" Properties=species:S:1:pos:R:3:Z:I:1 pbc="F F F"
C      -0.22963570      -1.10212647       0.48393035        6 
C      -0.76303419       0.34048845       0.84268946        6 
C       1.19343018      -1.27342634       0.00784299        6 
C      -0.09841427       1.54105322       0.16419320        6 
O       2.06159781      -0.81529894       0.93903018        8 
O       1.53561350      -1.85798773      -0.99047280        8 
O       0.96766570       1.23425495      -0.59216467        8 
O      -0.55620391       2.65852614       0.22998911        8 
C       1.51102700       2.29294338      -1.39997272        6 
C       3.45396694      -0.91101568       0.60249451        6 
C      -1.33530163      -1.70789994      -0.43271689        6 
C      -1.45655762      -0.84456005      -1.67828221        6 
C      -2.01432608       0.31487610      -1.31421386        6 
C      -2.22704640       0.26314778       0.19472986        6 
C      -2.57495149      -1.23060526       0.35935183        6 
C      -0.80693704       0.59214304       2.35547323        6 
H       0.75466119       2.65805313      -2.09666894        1 
H       3.66445026      -0.33745699      -0.30219747        1 
H      -2.17073631       1.19345563      -1.92604703        1 
H       2.34170726       1.84450001      -1.94038451        1 
H       1.85385449       3.11672409      -0.77308336        1 
H       3.98961365      -0.49160967       1.45169580        1 
H       3.74296324      -1.95098170       0.44254475        1 
H      -2.90473880       1.00328173       0.61484547        1 
H      -1.21669877      -2.77703558      -0.59927567        1 
H      -1.43844922      -0.15147011       2.84698651        1 
H       0.19540257       0.52423652       2.78582155        1 
H      -1.21223395       1.58375121       2.56353329        1 
H      -3.51428908      -1.48740267      -0.13269392        1 
H      -2.59819526      -1.57850834       1.39557701        1 
H      -1.06577874      -1.11553891      -2.64913266        1 
H      -0.25134835      -1.66523481       1.42389363        1 
