32
Lattice="0.0 0.0 0.0 0.0 0.0 0.0 0.0 0.0 0.0" Properties=species:S:1:pos:R:3:Z:I:1 pbc="F F F"
C      -0.85461181      -0.32795331      -0.91320146        6 
C       0.59778852      -0.82222978      -0.48109168        6 
C      -1.27009077       1.12937687      -0.81983298        6 
C       1.44983130       0.18990656       0.29670915        6 
O      -1.41666414       1.58287592       0.43064463        8 
O      -1.56078078       1.78466131      -1.79812831        8 
O       2.70507859       0.28324114      -0.20720286        8 
O       1.10115362       0.82718212       1.25804909        8 
C       3.58526802       1.19493290       0.47236219        6 
C      -1.85228463       2.94496760       0.57003747        6 
C      -1.81433173      -1.31079859      -0.12484114        6 
C      -1.65792993      -1.06308161       1.36538701        6 
C      -0.44968794      -1.50682059       1.72167161        6 
C       0.22281404      -2.05216960       0.47404945        6 
C      -1.01128758      -2.62104768      -0.26329462        6 
C       1.35299630      -1.32332046      -1.72879864        6 
H       3.19201181       2.21179303       0.42423060        1 
H      -2.84167016       3.07876435       0.12865117        1 
H       0.03252717      -1.38642318       2.68089286        1 
H       4.53471898       1.12603326      -0.05414724        1 
H       3.70183159       0.90824138       1.51865645        1 
H      -1.87764521       3.12894051       1.64155504        1 
H      -1.14903576       3.62138407       0.08221399        1 
H       1.06889895      -2.72201675       0.62872965        1 
H      -2.83066899      -1.30354456      -0.51867349        1 
H       0.75162457      -2.04959604      -2.27656452        1 
H       1.57786273      -0.49739984      -2.40620228        1 
H       2.29596035      -1.79709727      -1.45483910        1 
H      -1.46904791      -3.44515755       0.28550292        1 
H      -0.83078142      -2.92937969      -1.29421873        1 
H      -2.35758584      -0.51132441       1.97554051        1 
H      -0.95175160      -0.54288393      -1.97694372        1 
