32
Lattice="0.0 0.0 0.0 0.0 0.0 0.0 0.0 0.0 0.0" Properties=species:S:1:pos:R:3:Z:I:1 pbc="F F F"
C      -0.70983009       0.95072092       0.54807460        6 
C       0.63619318       0.16541241       0.77625594        6 
C      -1.87562172       0.22892380      -0.08928521        6 
C       0.78675701      -1.07384372      -0.10427834        6 
O      -2.29591566      -0.78026477       0.70479502        8 
O      -2.45021638       0.57870527      -1.09041430        8 
O       2.04675218      -1.56089067      -0.01593743        8 
O      -0.05940784      -1.58964878      -0.79105254        8 
C       2.32657348      -2.72969849      -0.80734394        6 
C      -3.33866904      -1.60944623       0.16468376        6 
C      -0.26576262       2.26025638      -0.16917391        6 
C       0.37275862       1.88467478      -1.49745855        6 
C       1.55106418       1.31070912      -1.23101670        6 
C       1.69738326       1.25158227       0.28440643        6 
C       0.99814865       2.57237843       0.66788217        6 
C       0.82779907      -0.23966777       2.24679752        6 
H       1.67008167      -3.55259768      -0.52056967        1 
H      -2.98489096      -2.10044567      -0.74331098        1 
H       2.22670564       0.84105111      -1.93389966        1 
H       3.36535136      -2.97790801      -0.60057652        1 
H       2.18651887      -2.51475826      -1.86811030        1 
H      -3.55645122      -2.34477781       0.93665254        1 
H      -4.22620934      -1.01671981      -0.06199041        1 
H       2.69773130       1.06730709       0.67081727        1 
H      -1.04976001       3.01422834      -0.21205765        1 
H       0.81040911       0.64435374       2.88785919        1 
H       0.02138332      -0.90485928       2.56608895        1 
H       1.78119507      -0.75039883       2.38956094        1 
H       1.54061041       3.44516896       0.30178472        1 
H       0.80240822       2.68523964       1.73758815        1 
H      -0.11368804       1.98059664      -2.45766183        1 
H      -1.07775461       1.22520956       1.54214975        1 
