32
Lattice="0.0 0.0 0.0 0.0 0.0 0.0 0.0 0.0 0.0" Properties=species:S:1:pos:R:3:Z:I:1 pbc="F F F"
C      -0.60493900       0.66788694      -0.92112472        6 
C      -0.73214945      -0.84302739      -0.46840613        6 
C       0.69443954       1.41428358      -0.71086604        6 
C       0.46224639      -1.42570430       0.27932902        6 
O       1.14762549       1.35024553       0.55756653        8 
O       1.23597179       2.06761049      -1.57189538        8 
O       1.60781696      -1.24293493      -0.41210803        8 
O       0.39795436      -2.08857120       1.28544982        8 
C       2.79681210      -1.80297868       0.16943687        6 
C       2.38265393       2.03398217       0.82406012        6 
C      -1.82789611       1.34473893      -0.17057622        6 
C      -1.58398567       1.25420400       1.32907415        6 
C      -1.71152994      -0.02786746       1.68267824        6 
C      -2.03143721      -0.81840504       0.42387902        6 
C      -2.88084127       0.22714308      -0.33830352        6 
C      -0.91832662      -1.76139914      -1.70127762        6 
H       2.97769604      -1.36698978       1.15328164        1 
H       2.28512379       3.10133252       0.61999374        1 
H      -1.50640980      -0.47119437       2.64608171        1 
H       3.60209495      -1.55090920      -0.51712952        1 
H       2.70088193      -2.88526221       0.26941270        1 
H       2.58650300       1.86180101       1.87881480        1 
H       3.18314123       1.62490027       0.20488959        1 
H      -2.45895829      -1.80865834       0.57272814        1 
H      -2.06894544       2.32987701      -0.56848955        1 
H      -1.80551500      -1.47514173      -2.26749834        1 
H      -0.05363294      -1.69709982      -2.36326388        1 
H      -1.03985991      -2.80166576      -1.38720277        1 
H      -3.81467991       0.45414478       0.17733915        1 
H      -3.09326326      -0.02721940      -1.37922299        1 
H      -1.25397060       2.07526330       1.94969236        1 
H      -0.78407402       0.73142592      -1.99466947        1 
