32
Lattice="0.0 0.0 0.0 0.0 0.0 0.0 0.0 0.0 0.0" Properties=species:S:1:pos:R:3:Z:I:1 pbc="F F F"
C       0.63916289      -1.03163657       0.68514189        6 
C      -0.80615524      -0.37517816       0.74679546        6 
C       1.81935139      -0.09443429       0.53368574        6 
C      -0.82734976       1.10388392       0.36284185        6 
O       1.92612167       0.41357427      -0.71063779        8 
O       2.59094421       0.16107590       1.42594788        8 
O      -1.85159322       1.40521710      -0.46129210        8 
O      -0.09422648       1.94156692       0.83003909        8 
C      -1.99026541       2.79305494      -0.81596561        6 
C       2.94049927       1.41602409      -0.89561700        6 
C       0.47040716      -2.15286941      -0.40050008        6 
C       0.13463028      -1.51402852      -1.73843255        6 
C      -1.10665837      -1.02962629      -1.65385274        6 
C      -1.61314529      -1.30933230      -0.24611179        6 
C      -0.92851772      -2.67392984       0.00738079        6 
C      -1.37205934      -0.42743330       2.18097973        6 
H      -2.13194239       3.40472817       0.07604903        1 
H       3.92374378       1.02235709      -0.63478089        1 
H      -1.63555897      -0.44164890      -2.38951272        1 
H      -2.86629095       2.84080428      -1.45925569        1 
H      -1.10278766       3.13611952      -1.34986181        1 
H       2.89915699       1.67926882      -1.95074151        1 
H       2.71808579       2.28354363      -0.27247389        1 
H      -2.69087809      -1.25170292      -0.10237918        1 
H       1.29119749      -2.86990126      -0.40171423        1 
H      -1.42838549      -1.45868855       2.53352214        1 
H      -0.73352615       0.13704199       2.86320123        1 
H      -2.37916510      -0.00220615       2.21612440        1 
H      -1.29802343      -3.45097870      -0.66343920        1 
H      -0.98459018      -3.02709795       1.03992768        1 
H       0.82964102      -1.40063719      -2.55788110        1 
H       0.81916270      -1.51848890       1.64469482        1 
