32
Lattice="0.0 0.0 0.0 0.0 0.0 0.0 0.0 0.0 0.0" Properties=species:S:1:pos:R:3:Z:I:1 pbc="F F F"
C       0.62505420      -0.77648863      -0.77537458        6 
C       0.53475444       0.80509450      -0.56677964        6 
C      -0.45944261      -1.59466198      -0.10791121        6 
C      -0.58583296       1.20030190       0.40403908        6 
O      -1.61794966      -1.47714611      -0.80316458        8 
O      -0.36253626      -2.24493164       0.90106236        8 
O      -1.65925733       1.71226568      -0.23948783        8 
O      -0.56284976       1.06825211       1.60307948        8 
C      -2.78856101       2.03998486       0.58711644        6 
C      -2.76291913      -2.14200488      -0.23897815        6 
C       2.07490585      -1.12444746      -0.28801582        6 
C       2.15160143      -0.88049133       1.21129611        6 
C       2.09235410       0.43947719       1.40333808        6 
C       1.97535152       1.09945590       0.03663928        6 
C       2.83506589       0.11768245      -0.79857909        6 
C       0.34488116       1.51603020      -1.92047719        6 
H      -3.15394758       1.15026731       1.10304798        1 
H      -2.95145993      -1.78181008       0.77370479        1 
H       2.01320308       0.96010814       2.34548138        1 
H      -3.54406263       2.42475677      -0.09467813        1 
H      -2.51833416       2.79402332       1.32786513        1 
H      -3.59412454      -1.89768236      -0.89699150        1 
H      -2.60350902      -3.22115897      -0.20893124        1 
H       2.23078306       2.15839120      -0.01427624        1 
H       2.41435736      -2.09938858      -0.63781328        1 
H       1.16489798       1.27722430      -2.59836104        1 
H      -0.58959672       1.21206358      -2.39160273        1 
H       0.31813358       2.60035837      -1.79001799        1 
H       3.87953576       0.12125974      -0.48575217        1 
H       2.77857052       0.26371305      -1.87908254        1 
H       2.12250916      -1.65614451       1.96139421        1 
H       0.53617207      -0.96572274      -1.84780596        1 
