32
Lattice="0.0 0.0 0.0 0.0 0.0 0.0 0.0 0.0 0.0" Properties=species:S:1:pos:R:3:Z:I:1 pbc="F F F"
C      -0.60787779       0.50186073      -0.95504453        6 
C      -0.52956991      -0.95506109      -0.36314932        6 
C       0.36771592       1.61994781      -0.61884258        6 
C       0.77868437      -1.49031176       0.21246990        6 
O       1.15884861       1.39064402       0.43951742        8 
O       0.28958965       2.70396486      -1.15423381        8 
O       1.85939514      -0.98058652      -0.40751092        8 
O       0.83742508      -2.47266019       0.91632538        8 
C       3.11694577      -1.60819643      -0.11135358        6 
C       1.94658294       2.50199712       0.89570900        6 
C      -1.99442505       1.01081281      -0.30758130        6 
C      -1.70578035       1.20911705       1.17679193        6 
C      -1.54386017      -0.00321270       1.71660203        6 
C      -1.75640467      -1.02822166       0.61424999        6 
C      -2.81927973      -0.28662778      -0.23550086        6 
C      -0.73375865      -1.96802342      -1.54018039        6 
H       3.34563174      -1.52490477       0.95217812        1 
H       1.30302683       3.33336573       1.18890603        1 
H      -1.22263319      -0.24105625       2.72162590        1 
H       3.85447486      -1.07057213      -0.70359545        1 
H       3.09348990      -2.66344553      -0.38989073        1 
H       2.50338411       2.12770030       1.75213382        1 
H       2.62665043       2.83751856       0.11132120        1 
H      -1.97588741      -2.04449246       0.93466221        1 
H      -2.41009908       1.86196260      -0.84199765        1 
H      -1.59960487      -1.70985333      -2.14865029        1 
H       0.14010803      -1.96882948      -2.19534086        1 
H      -0.87383112      -2.97624884      -1.14636633        1 
H      -3.75257482      -0.14405934       0.31121997        1 
H      -3.03842319      -0.74035196      -1.20156576        1 
H      -1.53565661       2.16733518       1.64953136        1 
H      -0.69581097       0.48050716      -2.04055820        1 
