32
Lattice="0.0 0.0 0.0 0.0 0.0 0.0 0.0 0.0 0.0" Properties=species:S:1:pos:R:3:Z:I:1 pbc="F F F"
C       0.27972657      -0.89352039       0.70158549        6 
C      -1.09016358      -0.11440033       0.68196204        6 
C       1.54927140      -0.07326130       0.67767249        6 
C      -1.07182598       1.32896139       0.16450359        6 
O       2.55813997      -0.74128915       0.07749493        8 
O       1.67851650       1.02329216       1.16484878        8 
O      -0.18803957       1.53686335      -0.82659924        8 
O      -1.84369995       2.18016487       0.54049244        8 
C      -0.13680917       2.86858217      -1.36246485        6 
C       3.82799866      -0.06399135       0.04269867        6 
C       0.09297390      -2.05522176      -0.33458458        6 
C      -0.08934184      -1.45136312      -1.71504115        6 
C      -1.28248930      -0.84960628      -1.73486159        6 
C      -1.90999377      -1.02224109      -0.35948262        6 
C      -1.37294742      -2.42911507      -0.01135984        6 
C      -1.76649951      -0.10926835       2.06014126        6 
H      -1.11352287       3.16591441      -1.74726867        1 
H       4.17341139       0.15544731       1.05394701        1 
H      -1.69177329      -0.23608011      -2.52599645        1 
H       0.59648849       2.82864624      -2.16547779        1 
H       0.17748544       3.57220600      -0.59042370        1 
H       4.50910270      -0.75048899      -0.45554272        1 
H       3.74382903       0.86846547      -0.51760735        1 
H      -2.98406895      -0.85401833      -0.29028974        1 
H       0.84336139      -2.83761515      -0.24255856        1 
H      -1.89169278      -1.12611520       2.43650834        1 
H      -1.16229779       0.45001652       2.77853537        1 
H      -2.74466059       0.36810827       2.00591950        1 
H      -1.76567332      -3.19474885      -0.68202148        1 
H      -1.53570999      -2.73489806       1.02444559        1 
H       0.67056267      -1.42849601      -2.48417302        1 
H       0.33646036      -1.37377449       1.68753154        1 
