32
Lattice="0.0 0.0 0.0 0.0 0.0 0.0 0.0 0.0 0.0" Properties=species:S:1:pos:R:3:Z:I:1 pbc="F F F"
C       0.11853884      -0.96379581       0.74114402        6 
C      -1.10534056       0.02943170       0.69625277        6 
C       1.50232674      -0.35679941       0.79291105        6 
C      -0.88176278       1.41376046       0.08473173        6 
O       2.33508602      -0.89554967      -0.12203285        8 
O       1.84243660       0.48284693       1.59095976        8 
O       0.29924799       1.55792126      -0.53741004        8 
O      -1.73697263       2.26916079       0.07584054        8 
C       0.50466474       2.79376261      -1.24159180        6 
C       3.67662327      -0.37705027      -0.12923421        6 
C      -0.21686468      -2.04515805      -0.33866000        6 
C      -0.30958709      -1.37309158      -1.69810472        6 
C      -1.41645493      -0.62365634      -1.70384586        6 
C      -2.06152586      -0.75027300      -0.33021589        6 
C      -1.72108216      -2.22368146      -0.02054809        6 
C      -1.76113148       0.20586225       2.07202583        6 
H      -0.24564337       2.91026248      -2.02549898        1 
H       4.16330745      -0.55703119       0.83059694        1 
H      -1.74114979       0.06272741      -2.47508556        1 
H       1.50069873       2.71847062      -1.67247383        1 
H       0.44487316       3.63891634      -0.55516182        1 
H       4.19038801      -0.91094299      -0.92591860        1 
H       3.66574915       0.69556376      -0.32871927        1 
H      -3.09845950      -0.42958310      -0.24693947        1 
H       0.41950200      -2.92589621      -0.27877303        1 
H      -2.09279525      -0.75711444       2.46632240        1 
H      -1.04779628       0.63605831       2.77943444        1 
H      -2.62270992       0.87049334       2.00079044        1 
H      -2.21912851      -2.91026972      -0.70694320        1 
H      -1.92170169      -2.52880561       1.00950300        1 
H       0.45102356      -1.43083109      -2.46423497        1 
H       0.04955029      -1.46714324       1.71250655        1 
