32
Lattice="0.0 0.0 0.0 0.0 0.0 0.0 0.0 0.0 0.0" Properties=species:S:1:pos:R:3:Z:I:1 pbc="F F F"
C       0.30769388       0.87420907       0.86335808        6 
C       1.01373315      -0.51577965       0.56794486        6 
C      -1.19952070       1.01999123       0.77989491        6 
C       0.22281490      -1.64534099      -0.08603654        6 
O      -1.65441328       1.27904271      -0.46170899        8 
O      -1.91422322       1.03745732       1.75559911        8 
O      -1.09935251      -1.43136883      -0.16031478        8 
O       0.73858961      -2.68643062      -0.42224480        8 
C      -1.89371101      -2.49953614      -0.70870948        6 
C      -3.07550156       1.43505590      -0.59101666        6 
C       1.11569274       1.86103640      -0.06562549        6 
C       0.90350073       1.45108843      -1.51591871        6 
C       1.55508501       0.30115806      -1.71204313        6 
C       2.19849691      -0.08610345      -0.39053505        6 
C       2.54214647       1.31305039       0.16323214        6 
C       1.54152370      -1.12241371       1.89010614        6 
H      -1.59792577      -2.70125273      -1.73906039        1 
H      -3.42791856       2.28144184       0.00070203        1 
H       1.54199793      -0.32278150      -2.59577925        1 
H      -2.92111919      -2.14498356      -0.66668245        1 
H      -1.77503839      -3.40673029      -0.11496097        1 
H      -3.25396719       1.60745480      -1.65061586        1 
H      -3.58918280       0.53141308      -0.25809571        1 
H       2.98791717      -0.83390699      -0.43476038        1 
H       0.93693698       2.90979008       0.16924496        1 
H       2.20824645      -0.42170502       2.39445738        1 
H       0.71269313      -1.34338923       2.56847884        1 
H       2.08638949      -2.04673237       1.69394730        1 
H       3.28862746       1.82308051      -0.44741699        1 
H       2.85834470       1.32184722       1.20874495        1 
H       0.25268120       1.96288389      -2.20923365        1 
H       0.52563996       1.12893023       1.90077866        1 
