32
Lattice="0.0 0.0 0.0 0.0 0.0 0.0 0.0 0.0 0.0" Properties=species:S:1:pos:R:3:Z:I:1 pbc="F F F"
C      -0.26922217      -1.01251450       0.57143650        6 
C      -0.79977598       0.47358810       0.73956912        6 
C       1.07794348      -1.24248908      -0.08090968        6 
C      -0.07728068       1.58940861      -0.01231908        6 
O       2.05774766      -1.24903814       0.85151641        8 
O       1.27745378      -1.46270193      -1.25035355        8 
O       1.23236937       1.35184154      -0.19706016        8 
O      -0.60944229       2.62724827      -0.32846054        8 
C       1.97565781       2.36869356      -0.89393854        6 
C       3.39339703      -1.41700851       0.35111238        6 
C      -1.45001965      -1.72271978      -0.17456783        6 
C      -1.61708276      -1.06385032      -1.53622124        6 
C      -2.12556890       0.15578563      -1.33403366        6 
C      -2.27364036       0.34363133       0.16925544        6 
C      -2.64073404      -1.09596061       0.58502764        6 
C      -0.78276633       0.89946306       2.22308763        6 
H       1.57946979       2.49890791      -1.90173380        1 
H       3.63399585      -0.62423858      -0.35927745        1 
H      -2.28876528       0.93351991      -2.06701857        1 
H       2.99951079       2.00364581      -0.93112630        1 
H       1.92175624       3.31640389      -0.35702349        1 
H       4.04167301      -1.36034029       1.22301647        1 
H       3.50038944      -2.38353490      -0.14440311        1 
H      -2.92243334       1.15415576       0.49433586        1 
H      -1.36497182      -2.80897522      -0.17335830        1 
H      -1.38860833       0.21869613       2.82422061        1 
H       0.23642789       0.88510478       2.61756084        1 
H      -1.18627646       1.90829888       2.33496819        1 
H      -3.60565731      -1.40744582       0.18203864        1 
H      -2.62088604      -1.27557657       1.66293956        1 
H      -1.27884791      -1.49097886      -2.46869811        1 
H      -0.18723140      -1.43460373       1.57502507        1 
