32
Lattice="0.0 0.0 0.0 0.0 0.0 0.0 0.0 0.0 0.0" Properties=species:S:1:pos:R:3:Z:I:1 pbc="F F F"
C      -0.08868086      -0.87768728       0.67123546        6 
C      -0.92166447       0.46599477       0.67074707        6 
C       1.23974913      -0.88305501      -0.04731198        6 
C      -0.29309867       1.60751812      -0.12720957        6 
O       2.15875019      -1.58037474       0.66105981        8 
O       1.47218017      -0.39785862      -1.12782263        8 
O       0.89015962       1.97888021       0.40708769        8 
O      -0.79046018       2.15806771      -1.07721031        8 
C       1.62885764       2.96378569      -0.33717320        6 
C       3.44956050      -1.72598301       0.04152407        6 
C      -1.09322672      -1.91111192       0.00787516        6 
C      -1.30180790      -1.49285455      -1.43760051        6 
C      -2.01420372      -0.36281190      -1.42835167        6 
C      -2.28540167      -0.00149494       0.02370308        6 
C      -2.42003277      -1.42025000       0.62584424        6 
C      -1.12751788       0.98034576       2.11199862        6 
H       1.88039453       2.56731571      -1.32201097        1 
H       3.89378102      -0.74783829      -0.14846164        1 
H      -2.25473428       0.26960234      -2.26926937        1 
H       2.52961218       3.15256789       0.24309436        1 
H       1.04450760       3.87773377      -0.45031122        1 
H       4.05057461      -2.28951533       0.75175142        1 
H       3.36134454      -2.26747823      -0.90198234        1 
H      -3.09844382       0.70174502       0.19784092        1 
H      -0.80583944      -2.94748983       0.18337079        1 
H      -1.63639177       0.23329117       2.72307704        1 
H      -0.16993020       1.21297911       2.57946292        1 
H      -1.73734960       1.88796713       2.10947842        1 
H      -3.28273527      -1.95613423       0.22789696        1 
H      -2.43996741      -1.45729134       1.71745278        1 
H      -0.83984791      -1.96795228      -2.29183657        1 
H       0.09592169      -1.18544142       1.70082086        1 
