32
Lattice="0.0 0.0 0.0 0.0 0.0 0.0 0.0 0.0 0.0" Properties=species:S:1:pos:R:3:Z:I:1 pbc="F F F"
C      -0.77601778       0.44940446       0.95938742        6 
C       0.71255362       0.77052414       0.48611994        6 
C      -1.21042002      -0.99211672       0.78179383        6 
C       1.32998551      -0.38120946      -0.31247535        6 
O      -2.00356126      -1.19681764      -0.27913353        8 
O      -0.92258191      -1.86156007       1.57451418        8 
O       2.57365679      -0.69632114       0.10519747        8 
O       0.80124859      -0.94513964      -1.24132483        8 
C       3.21291139      -1.78076878      -0.59265719        6 
C      -2.36791414      -2.56170375      -0.54726196        6 
C      -1.62668518       1.56211224       0.23982991        6 
C      -1.56125321       1.34707447      -1.26368643        6 
C      -0.31966135       1.63660460      -1.65880363        6 
C       0.46832743       2.04967509      -0.42768422        6 
C      -0.65454914       2.75587627       0.37246090        6 
C       1.59096653       1.12519717       1.70108927        6 
H       2.63037350      -2.69642305      -0.48097388        1 
H      -2.90721974      -2.99081893       0.29860745        1 
H       0.10379866       1.48664827      -2.64178358        1 
H       4.18954534      -1.88798381      -0.12593904        1 
H       3.31462036      -1.54720930      -1.65348949        1 
H      -3.00287920      -2.52282183      -1.42977025        1 
H      -1.47250275      -3.15158425      -0.74740798        1 
H       1.38817481       2.60703083      -0.60541906        1 
H      -2.62193692       1.67734021       0.66839338        1 
H       1.14109368       1.93531362       2.27527395        1 
H       1.70379315       0.26461368       2.36286165        1 
H       2.58737245       1.43918930       1.38708556        1 
H      -1.01932814       3.64640563      -0.14050736        1 
H      -0.39378793       3.00888930       1.40128920        1 
H      -2.35442266       0.91978870      -1.85844669        1 
H      -0.81322405       0.60933918       2.03797259        1 
