32
Lattice="0.0 0.0 0.0 0.0 0.0 0.0 0.0 0.0 0.0" Properties=species:S:1:pos:R:3:Z:I:1 pbc="F F F"
C      -0.48645541       0.66840277      -0.91204178        6 
C      -0.79684347      -0.80899443      -0.43684475        6 
C       0.81489949       1.42445753      -0.70729368        6 
C       0.29762660      -1.71106418       0.13250123        6 
O       1.36361050       1.30600896       0.51226387        8 
O       1.21501840       2.22294243      -1.52681143        8 
O       1.54444758      -1.25411597      -0.05659547        8 
O       0.07062709      -2.83899476       0.50971037        8 
C       2.60935569      -2.15735098       0.29048874        6 
C       2.53622720       2.09794923       0.75506762        6 
C      -1.62462356       1.48393688      -0.13276362        6 
C      -1.30169315       1.40162246       1.35456313        6 
C      -1.53399112       0.14563267       1.74824291        6 
C      -2.01958478      -0.62945687       0.53465231        6 
C      -2.80001599       0.48706515      -0.19882968        6 
C      -1.23594625      -1.62429126      -1.69676290        6 
H       2.56410020      -2.40966345       1.35069566        1 
H       2.31387937       3.16175819       0.65465320        1 
H      -1.32155380      -0.29345371       2.71392308        1 
H       3.52772842      -1.62097974       0.06200134        1 
H       2.53970492      -3.07335633      -0.29834835        1 
H       2.83756756       1.86200320       1.77356706        1 
H       3.32650075       1.83361400       0.05009599        1 
H      -2.53461579      -1.56736620       0.73260175        1 
H      -1.77836588       2.47916343      -0.54717181        1 
H      -2.00597953      -1.09682405      -2.26013395        1 
H      -0.38589336      -1.77962832      -2.36724472        1 
H      -1.62135960      -2.59997615      -1.39928705        1 
H      -3.66128315       0.82852601       0.37670478        1 
H      -3.11854567       0.23638610      -1.21126727        1 
H      -0.85663316       2.19810018       1.93382884        1 
H      -0.67499718       0.74382425      -1.98149241        1 
