32
Lattice="0.0 0.0 0.0 0.0 0.0 0.0 0.0 0.0 0.0" Properties=species:S:1:pos:R:3:Z:I:1 pbc="F F F"
C      -0.75887080       0.57271991       0.91460937        6 
C       0.79177391       0.59399841       0.57722300        6 
C      -1.43891254      -0.76832472       0.72701119        6 
C       1.24419471      -0.63796810      -0.20476964        6 
O      -2.32963451      -0.78363675      -0.27791195        8 
O      -1.25103604      -1.70596420       1.46826428        8 
O       2.52383344      -0.97246689       0.06335808        8 
O       0.58144238      -1.22394600      -1.02739383        8 
C       3.04362301      -2.09874542      -0.66749067        6 
C      -2.93300513      -2.05689401      -0.56651782        6 
C      -1.32007995       1.80134988       0.11175478        6 
C      -1.14995453       1.53488033      -1.37479039        6 
C       0.15489191       1.59628549      -1.65022923        6 
C       0.88302206       1.89037278      -0.35058800        6 
C      -0.16338555       2.80164644       0.33443115        6 
C       1.62427551       0.76088675       1.86052427        6 
H       2.44619056      -2.98905896      -0.46664400        1 
H      -3.48884635      -2.42481369       0.29722300        1 
H       0.63659688       1.34800196      -2.58602804        1 
H       4.06228390      -2.22988435      -0.30930846        1 
H       3.03452494      -1.89560899      -1.73954040        1 
H      -3.60140725      -1.87687877      -1.40593989        1 
H      -2.16024785      -2.77702562      -0.83826938        1 
H       1.90386501       2.26252898      -0.43474020        1 
H      -2.31502123       2.10551764       0.43457912        1 
H       1.27956288       1.62379793       2.43143772        1 
H       1.52437160      -0.12257823       2.49492770        1 
H       2.68143025       0.89717720       1.63208403        1 
H      -0.30903364       3.73538542      -0.21048049        1 
H       0.04236672       3.02049387       1.38422021        1 
H      -1.94528762       1.23149896      -2.03889032        1 
H      -0.85590868       0.77596091       1.98308694        1 
