32
Lattice="0.0 0.0 0.0 0.0 0.0 0.0 0.0 0.0 0.0" Properties=species:S:1:pos:R:3:Z:I:1 pbc="F F F"
C      -0.82592094      -0.36142190      -0.57811081        6 
C       0.75244117      -0.27634851      -0.65001647        6 
C      -1.76375885       0.70629053      -0.04104561        6 
C       1.49704835       0.82980671       0.10549048        6 
O      -2.96817989       0.52181363      -0.66906395        8 
O      -1.60146158       1.55292746       0.79153246        8 
O       2.80259530       0.84223637      -0.29476315        8 
O       1.09176648       1.55741363       0.96761979        8 
C       3.64938657       1.78335002       0.38442977        6 
C      -4.03806525       1.37464029      -0.23167140        6 
C      -1.07830421      -1.72099189       0.20405824        6 
C      -0.53475935      -1.54248976       1.61083465        6 
C       0.79903087      -1.51854548       1.52340926        6 
C       1.16337344      -1.65820408       0.05207660        6 
C       0.02994106      -2.59143093      -0.41908961        6 
C       1.18334684      -0.25933945      -2.13477010        6 
H       3.27401002       2.79981915       0.25630735        1 
H      -3.78769846       2.42388947      -0.39741079        1 
H       1.50039009      -1.29497281       2.31586847        1 
H       4.62978615       1.67596082      -0.07540393        1 
H       3.69864506       1.55646050       1.45102567        1 
H      -4.90086152       1.08939699      -0.83057634        1 
H      -4.24326463       1.22285824       0.82988805        1 
H       2.18924956      -1.94378317      -0.17429754        1 
H      -2.10614316      -2.06768159       0.11136535        1 
H       0.68707002      -1.05658005      -2.68999962        1 
H       0.90747216       0.69013025      -2.60265735        1 
H       2.25991792      -0.38649172      -2.23422206        1 
H       0.09415801      -3.57753820       0.04372779        1 
H      -0.04942349      -2.70300085      -1.50222129        1 
H      -1.13603763      -1.34301653       2.48736141        1 
H      -1.17284261      -0.53105304      -1.59742541        1 
