32
Lattice="0.0 0.0 0.0 0.0 0.0 0.0 0.0 0.0 0.0" Properties=species:S:1:pos:R:3:Z:I:1 pbc="F F F"
C      -0.20615950       1.17568817       0.41092062        6 
C       0.72786454      -0.01396184       0.92541972        6 
C      -1.43456838       0.72083498      -0.34406280        6 
C       0.20391198      -1.37618044       0.45761287        6 
O      -2.52485458       0.77130262       0.44750655        8 
O      -1.46716445       0.35077636      -1.49425864        8 
O       0.93399520      -1.95361804      -0.50734678        8 
O      -0.75606631      -1.91556367       0.96052994        8 
C       0.43745920      -3.20774806      -1.01159824        6 
C      -3.73689611       0.23549444      -0.11575144        6 
C       0.77864509       2.08327231      -0.39858570        6 
C       1.26763281       1.32350653      -1.61963558        6 
C       2.08321569       0.35871254      -1.18903915        6 
C       2.12874951       0.43427046       0.33117415        6 
C       2.02813627       1.97045526       0.50477557        6 
C       0.75364298      -0.07415356       2.46370508        6 
H       0.39301279      -3.95079029      -0.21417997        1 
H      -3.60129382      -0.82114961      -0.35059854        1 
H       2.54307746      -0.41977999      -1.77823840        1 
H       1.14516246      -3.50912804      -1.78087697        1 
H      -0.55705078      -3.07026792      -1.43744526        1 
H      -4.49448626       0.36128645       0.65446887        1 
H      -4.01252944       0.77844482      -1.02096775        1 
H       2.96559527      -0.07218295       0.81184701        1 
H       0.37898625       3.08130970      -0.57862517        1 
H       1.07906695       0.87588749       2.88881371        1 
H      -0.23773371      -0.31020053       2.85173193        1 
H       1.44302022      -0.85267943       2.80343513        1 
H       2.89067208       2.48899595       0.08464888        1 
H       1.86573156       2.30599388       1.53143880        1 
H       0.92057959       1.48830694      -2.62904975        1 
H      -0.55816808       1.71988011       1.28809822        1 
