32
Lattice="0.0 0.0 0.0 0.0 0.0 0.0 0.0 0.0 0.0" Properties=species:S:1:pos:R:3:Z:I:1 pbc="F F F"
C      -0.75167864       0.90242544       0.55503865        6 
C       0.64533300       0.21142101       0.75668238        6 
C      -1.89911186       0.10293207      -0.01751859        6 
C       0.86015591      -0.98461322      -0.16686775        6 
O      -2.05819776      -1.05640413       0.65958067        8 
O      -2.68562457       0.50994652      -0.83668425        8 
O       2.05859035      -1.56732725       0.07008160        8 
O       0.11711380      -1.36601941      -1.03694003        8 
C       2.39724866      -2.67390581      -0.78500084        6 
C      -3.10835547      -1.91871996       0.19139347        6 
C      -0.42141718       2.24527774      -0.16374931        6 
C       0.22095502       1.93173609      -1.50438232        6 
C       1.44405533       1.44813952      -1.26480133        6 
C       1.61957886       1.38037138       0.24607941        6 
C       0.82920163       2.64102334       0.65690514        6 
C       0.90491720      -0.17248812       2.22000460        6 
H       1.65968128      -3.47185710      -0.68689794        1 
H      -2.90094470      -2.23460115      -0.83240391        1 
H       2.13512410       1.03095367      -1.98568972        1 
H       3.37523337      -3.01186366      -0.44913826        1 
H       2.43779478      -2.35273193      -1.82715967        1 
H      -3.10316813      -2.77542590       0.86225441        1 
H      -4.07211682      -1.40852049       0.22680724        1 
H       2.63673433       1.26476731       0.61626532        1 
H      -1.25925486       2.93920468      -0.18364239        1 
H       0.83286458       0.70991390       2.85943813        1 
H       0.16283960      -0.89893540       2.56136154        1 
H       1.89756613      -0.60643441       2.34184069        1 
H       1.30053087       3.55523314       0.29339658        1 
H       0.64364617       2.72689780       1.73078965        1 
H      -0.28784265       1.99614265      -2.45590939        1 
H      -1.11144897       1.15840373       1.55874649        1 
