32
Lattice="0.0 0.0 0.0 0.0 0.0 0.0 0.0 0.0 0.0" Properties=species:S:1:pos:R:3:Z:I:1 pbc="F F F"
C       0.18902808       1.11312651       0.34812621        6 
C       0.72348612      -0.27721002       0.82994491        6 
C      -1.26775659       1.42312194       0.07606106        6 
C       0.11407210      -1.55342733       0.24596706        6 
O      -2.11092866       0.45555712       0.48389790        8 
O      -1.64808359       2.52812619      -0.23823420        8 
O      -0.68025633      -1.36007895      -0.81741484        8 
O       0.42984891      -2.65634162       0.63400756        8 
C      -1.15996063      -2.54384658      -1.47479885        6 
C      -3.51132274       0.78346003       0.45914642        6 
C       1.28406164       1.66337510      -0.62801646        6 
C       1.47339833       0.69728167      -1.78413208        6 
C       2.05218743      -0.40632036      -1.30023736        6 
C       2.20985677      -0.21922659       0.20271775        6 
C       2.51993069       1.29374575       0.23223673        6 
C       0.74777525      -0.39658014       2.35797283        6 
H      -0.32578846      -3.13028001      -1.86444285        1 
H      -3.83221535       1.01382454      -0.55783098        1 
H       2.24911393      -1.32993825      -1.82914747        1 
H      -1.78983365      -2.18825749      -2.28755757        1 
H      -1.73585713      -3.16003236      -0.78282320        1 
H      -4.02137266      -0.10358024       0.82898843        1 
H      -3.71589551       1.64178350       1.10128107        1 
H       2.89323622      -0.89994468       0.70700511        1 
H       1.13201865       2.70986297      -0.88288647        1 
H       1.35776649       0.39668607       2.79587380        1 
H      -0.26419629      -0.31250579       2.76370510        1 
H       1.15842910      -1.36116076       2.65660319        1 
H       3.46304758       1.52093088      -0.26633793        1 
H       2.51568116       1.74167452       1.22877450        1 
H       1.11171497       0.86017342      -2.79069703        1 
H       0.30628008       1.75243828       1.23432115        1 
