32
Lattice="0.0 0.0 0.0 0.0 0.0 0.0 0.0 0.0 0.0" Properties=species:S:1:pos:R:3:Z:I:1 pbc="F F F"
C      -0.42272193      -1.02909121       0.66915829        6 
C      -0.97399284       0.46536299       0.65970962        6 
C       1.04038402      -1.42982909       0.68612059        6 
C      -0.01193648       1.64372332       0.42733768        6 
O       1.81904499      -0.81389371      -0.21502293        8 
O       1.44510073      -2.31986953       1.40215285        8 
O       0.70321679       1.56329384      -0.70157321        8 
O       0.01751361       2.62227390       1.14077758        8 
C       1.57247307       2.66994477      -0.98740981        6 
C       3.18384998      -1.26341060      -0.28361000        6 
C      -1.20555198      -1.71906267      -0.52428293        6 
C      -0.77888298      -1.07662651      -1.82825788        6 
C      -1.28138648       0.16101708      -1.84579061        6 
C      -2.03392976       0.37245650      -0.54144028        6 
C      -2.58746705      -1.05665892      -0.33481745        6 
C      -1.68909948       0.74366567       1.99510213        6 
H       1.00370302       3.59746806      -1.07171715        1 
H       3.22579431      -2.31714354      -0.56458815        1 
H      -1.10082325       0.92851568      -2.58416519        1 
H       2.04820153       2.42278804      -1.93435363        1 
H       2.32023683       2.78131565      -0.20042296        1 
H       3.65097364      -0.64463696      -1.04692316        1 
H       3.68085909      -1.13101600       0.67849677        1 
H      -2.74640276       1.19710424      -0.52278627        1 
H      -1.15802913      -2.80640447      -0.47271727        1 
H      -2.42617857      -0.02933110       2.21088406        1 
H      -0.97052123       0.76529027       2.81697989        1 
H      -2.19198704       1.71080539       1.97450007        1 
H      -3.28986821      -1.33816811      -1.12053443        1 
H      -3.03849609      -1.24058651       0.64070131        1 
H      -0.10101722      -1.51845766      -2.54534221        1 
H      -0.79473718      -1.48333812       1.58769317        1 
