32
Lattice="0.0 0.0 0.0 0.0 0.0 0.0 0.0 0.0 0.0" Properties=species:S:1:pos:R:3:Z:I:1 pbc="F F F"
C      -0.60272316      -0.97706216       0.63491785        6 
C      -0.85327951       0.59107760       0.69309654        6 
C       0.76390318      -1.62841097       0.56951238        6 
C       0.33510925       1.54484056       0.46382416        6 
O       1.68194102      -0.96815963      -0.15245884        8 
O       0.98483776      -2.69633796       1.09579856        8 
O       0.84936663       1.51075821      -0.77385506        8 
O       0.69937792       2.35471325       1.28701232        8 
C       1.95584930       2.38824509      -1.02650376        6 
C       2.96841741      -1.60231643      -0.27336808        6 
C      -1.55672961      -1.46818028      -0.53004248        6 
C      -1.06751873      -0.88241727      -1.83988747        6 
C      -1.31722236       0.42966284      -1.80672203        6 
C      -1.95290571       0.74684487      -0.46153537        6 
C      -2.77124949      -0.55389661      -0.26233965        6 
C      -1.45337923       0.96502959       2.06105473        6 
H       1.66364171       3.43101421      -0.89192359        1 
H       2.86869332      -2.58203432      -0.74288023        1 
H      -1.02864888       1.16802516      -2.53970637        1 
H       2.24185220       2.19983058      -2.05957208        1 
H       2.78284329       2.15988386      -0.35193608        1 
H       3.55870945      -0.93535966      -0.89816563        1 
H       3.42946039      -1.72128322       0.70817884        1 
H      -2.48995033       1.69292457      -0.39257314        1 
H      -1.71808554      -2.54502328      -0.50156789        1 
H      -2.32271392       0.34820824       2.29034688        1 
H      -0.71744104       0.82865727       2.85497867        1 
H      -1.75891430       2.01246566       2.07569430        1 
H      -3.54628251      -0.66635173      -1.02161143        1 
H      -3.21045839      -0.67502100       0.72854890        1 
H      -0.52686845      -1.42854020      -2.60101493        1 
H      -1.01072585      -1.39127563       1.55830175        1 
