32
Lattice="0.0 0.0 0.0 0.0 0.0 0.0 0.0 0.0 0.0" Properties=species:S:1:pos:R:3:Z:I:1 pbc="F F F"
C       0.63713459      -0.73122573      -0.79828919        6 
C       0.52478770       0.84294273      -0.55547263        6 
C      -0.37683669      -1.69332562      -0.20325896        6 
C      -0.63258400       1.30911964       0.33772229        6 
O      -1.64746694      -1.28307511      -0.37650582        8 
O      -0.09178032      -2.75467192       0.29766479        8 
O      -1.77296559       1.48176028      -0.35867670        8 
O      -0.54384033       1.59444746       1.50846390        8 
C      -2.92290413       1.88103296       0.40119335        6 
C      -2.67511748      -2.17587425       0.09122240        6 
C       2.08431401      -1.06772606      -0.29213736        6 
C       2.06621187      -0.89483690       1.22054060        6 
C       1.96589228       0.41387056       1.46989647        6 
C       1.91953934       1.13620880       0.12766628        6 
C       2.84469201       0.20950185      -0.69868621        6 
C       0.40194271       1.58062557      -1.90872171        6 
H      -3.14410371       1.14170661       1.17344029        1 
H      -2.56891847      -2.35225560       1.16251236        1 
H       1.83065262       0.89496905       2.42628676        1 
H      -3.73845139       1.93975859      -0.31670574        1 
H      -2.75750757       2.85026124       0.87458377        1 
H      -3.61447084      -1.67114775      -0.12470840        1 
H      -2.62162732      -3.12942301      -0.43636547        1 
H       2.15561753       2.19992879       0.14704827        1 
H       2.45538083      -2.02033970      -0.66502179        1 
H       1.24368980       1.34491602      -2.56046651        1 
H      -0.51929473       1.29908247      -2.41801289        1 
H       0.38663739       2.66340803      -1.75734408        1 
H       3.86959590       0.21468256      -0.32598080        1 
H       2.85089449       0.40516619      -1.77244339        1 
H       2.02401476      -1.71096441       1.92732151        1 
H       0.56909256      -0.89736245      -1.87961134        1 
