32
Lattice="0.0 0.0 0.0 0.0 0.0 0.0 0.0 0.0 0.0" Properties=species:S:1:pos:R:3:Z:I:1 pbc="F F F"
C       1.01145752      -0.53516088      -0.75347734        6 
C       0.38601633       0.91951093      -0.70046073        6 
C       0.22539603      -1.78473059      -0.40975544        6 
C      -1.13220387       0.96897046      -0.50241465        6 
O      -0.99361074      -1.55937189       0.10314971        8 
O       0.70369864      -2.89105019      -0.51403065        8 
O      -1.50364096       1.40032905       0.71835825        8 
O      -1.92851455       0.72184877      -1.37597874        8 
C      -2.92047674       1.43899840       0.95886029        6 
C      -1.75829920      -2.72027932       0.47366325        6 
C       2.20830160      -0.43407532       0.28896027        6 
C       1.56537374      -0.34505334       1.66501802        6 
C       0.98834616       0.85660815       1.75482183        6 
C       1.24435732       1.59267659       0.44403312        6 
C       2.64740239       1.02988346       0.10584425        6 
C       0.61767545       1.63449508      -2.05491771        6 
H      -3.40806900       2.13561308       0.27518011        1 
H      -1.25008896      -3.27456997       1.26403701        1 
H       0.36110646       1.22616810       2.55196593        1 
H      -3.03222738       1.76990856       1.98930273        1 
H      -3.35115852       0.44591720       0.82315815        1 
H      -2.71345253      -2.33641999       0.82500330        1 
H      -1.90172909      -3.37116754      -0.38962558        1 
H       1.12756152       2.67525881       0.47374190        1 
H       2.94789061      -1.21806811       0.14290903        1 
H       1.66648547       1.61265564      -2.34854989        1 
H       0.02777969       1.15373809      -2.83552534        1 
H       0.30434523       2.68048606      -1.99161445        1 
H       3.39803347       1.32619835       0.83966968        1 
H       3.00958880       1.26500304      -0.89538861        1 
H       1.50081554      -1.16268643       2.37087006        1 
H       1.42091436      -0.71753712      -1.74926850        1 
