32
Lattice="0.0 0.0 0.0 0.0 0.0 0.0 0.0 0.0 0.0" Properties=species:S:1:pos:R:3:Z:I:1 pbc="F F F"
C      -0.33769820      -1.09010799       0.49436009        6 
C      -0.79963990       0.38653057       0.82689949        6 
C       1.09204901      -1.56471617       0.29792924        6 
C       0.07720837       1.58272856       0.43165935        6 
O       2.00844533      -0.62428806       0.02916378        8 
O       1.38221637      -2.72928862       0.46438729        8 
O       0.63809323       1.47901702      -0.78016427        8 
O       0.15732421       2.59040146       1.09906954        8 
C       1.43586882       2.58918709      -1.21418977        6 
C       3.36863700      -1.08568377      -0.07704476        6 
C      -1.37488096      -1.59966175      -0.58073968        6 
C      -1.27465517      -0.74789673      -1.82962250        6 
C      -1.75284409       0.46317935      -1.52878463        6 
C      -2.14796477       0.45076390      -0.06002098        6 
C      -2.65609663      -1.00477311       0.04937434        6 
C      -1.12101713       0.52109939       2.32294185        6 
H       0.84031334       3.50258410      -1.25766677        1 
H       3.46093592      -1.81840362      -0.87971791        1 
H      -1.75131692       1.34135356      -2.15926283        1 
H       1.79305107       2.31618144      -2.20526768        1 
H       2.27548004       2.74333635      -0.53409422        1 
H       3.95654722      -0.19729830      -0.29743361        1 
H       3.69177528      -1.53986417       0.86069656        1 
H      -2.81291342       1.24849695       0.26943919        1 
H      -1.33109382      -2.67908657      -0.71519403        1 
H      -1.83503294      -0.24132957       2.63792023        1 
H      -0.21389977       0.40363636       2.92166885        1 
H      -1.53527623       1.50414111       2.54478465        1 
H      -3.54071945      -1.17457945      -0.56597912        1 
H      -2.84781470      -1.34685195       1.06776162        1 
H      -0.80777220      -1.05724651      -2.75528120        1 
H      -0.59259170      -1.66537538       1.38854455        1 
