32
Lattice="0.0 0.0 0.0 0.0 0.0 0.0 0.0 0.0 0.0" Properties=species:S:1:pos:R:3:Z:I:1 pbc="F F F"
C      -0.32148497       0.81651652       0.82511893        6 
C       1.13677565       0.22343759       0.62026164        6 
C      -1.48532578      -0.12797538       0.59518618        6 
C       1.16706953      -1.26527455       0.23615483        6 
O      -2.56179582       0.52362065       0.10308633        8 
O      -1.50410360      -1.30082446       0.87809653        8 
O       0.78383113      -1.49614515      -1.03475583        8 
O       1.48265098      -2.15104684       0.99085483        8 
C       0.62944997      -2.87901925      -1.39908987        6 
C      -3.74417485      -0.27349289      -0.09435821        6 
C      -0.32702233       2.10195566      -0.08719793        6 
C      -0.31316009       1.62133527      -1.53041733        6 
C       0.88941506       1.08738560      -1.75803846        6 
C       1.70611207       1.21472780      -0.47893670        6 
C       1.13935688       2.56122770       0.04421182        6 
C       1.94955763       0.33178661       1.92648140        6 
H       1.57597482      -3.41277291      -1.30166783        1 
H      -4.05745796      -0.73356412       0.84374697        1 
H       1.21803639       0.56702547      -2.64549541        1 
H       0.30013371      -2.86947427      -2.43653407        1 
H      -0.11967101      -3.34657278      -0.75887452        1 
H      -4.50235406       0.41754252      -0.45642907        1 
H      -3.55409694      -1.05540367      -0.83129334        1 
H       2.78722241       1.13272322      -0.59063566        1 
H      -1.10590463       2.81365147       0.17814394        1 
H       1.95402459       1.35031745       2.31347149        1 
H       1.53130226      -0.32784767       2.68701765        1 
H       2.98445647       0.02381756       1.76046224        1 
H       1.37085419       3.39025578      -0.62582954        1 
H       1.43938272       2.82187599       1.05917015        1 
H      -1.17132714       1.61906147      -2.18775475        1 
H      -0.41828202       1.11302992       1.87536207        1 
