32
Lattice="0.0 0.0 0.0 0.0 0.0 0.0 0.0 0.0 0.0" Properties=species:S:1:pos:R:3:Z:I:1 pbc="F F F"
C       0.66216875      -0.70356281       0.59880556        6 
C      -0.89031989      -0.45616261       0.76879712        6 
C       1.56119156       0.45801562       0.23855486        6 
C      -1.39261317       0.96563019       0.44850391        6 
O       2.85501373       0.08796867       0.40192620        8 
O       1.24132367       1.54939885      -0.16119625        8 
O      -1.46003215       1.24088127      -0.86176169        8 
O      -1.80179622       1.72664772       1.29451445        8 
C      -1.82064644       2.58733699      -1.20726018        6 
C       3.84203384       1.07618421       0.05406000        6 
C       0.75326078      -1.91023167      -0.41989159        6 
C       0.26402249      -1.41744773      -1.76803124        6 
C      -1.05177925      -1.21553749      -1.66022173        6 
C      -1.46367313      -1.56087644      -0.23395625        6 
C      -0.47650053      -2.72516165       0.03061632        6 
C      -1.32345388      -0.75488669       2.21517870        6 
H      -2.79148908       2.84967317      -0.78471377        1 
H       3.72198368       1.96960205       0.66882640        1 
H      -1.70981515      -0.78861525      -2.40159123        1 
H      -1.85468200       2.60693558      -2.29487957        1 
H      -1.06022100       3.27616978      -0.83677289        1 
H       4.80357339       0.60539814       0.24651883        1 
H       3.75278299       1.35134620      -0.99817257        1 
H      -2.52445344      -1.75482448      -0.07504514        1 
H       1.72426918      -2.40128740      -0.39799215        1 
H      -0.99958638      -1.74727763       2.52982500        1 
H      -0.90038952      -0.01957767       2.90064200        1 
H      -2.40993302      -0.70177189       2.31001032        1 
H      -0.66585928      -3.57791557      -0.62321278        1 
H      -0.43302061      -3.06619465       1.06597524        1 
H       0.89807604      -1.17727474      -2.61105271        1 
H       1.04638447      -1.06839009       1.55573451        1 
