32
Lattice="0.0 0.0 0.0 0.0 0.0 0.0 0.0 0.0 0.0" Properties=species:S:1:pos:R:3:Z:I:1 pbc="F F F"
C      -0.76508267       0.68271623       0.86096895        6 
C       0.79059535       0.48551358       0.63374784        6 
C      -1.67186856      -0.52512167       0.70318715        6 
C       1.16867138      -0.83095116      -0.03710906        6 
O      -2.23581787      -0.62580183      -0.51166515        8 
O      -1.96622975      -1.24327693       1.63200516        8 
O       2.50594981      -1.03167804       0.00842835        8 
O       0.42371956      -1.58769317      -0.60908759        8 
C       2.98468684      -2.21852711      -0.65068479        6 
C      -3.03467214      -1.79701107      -0.74213719        6 
C      -1.09137308       1.91489257      -0.06473985        6 
C      -0.82912810       1.52894154      -1.51345079        6 
C       0.49231927       1.41573000      -1.67189396        6 
C       1.13547211       1.70419372      -0.32720293        6 
C       0.16144669       2.77925776       0.20854976        6 
C       1.54335905       0.59947995       1.97670885        6 
H       2.54106692      -3.10838853      -0.20174094        1 
H      -3.84402076      -1.86432443      -0.01385761        1 
H       1.01918423       1.05887996      -2.54701137        1 
H       4.06304524      -2.21391932      -0.50746990        1 
H       2.73661833      -2.19234609      -1.71291299        1 
H      -3.43105061      -1.68453777      -1.74940655        1 
H      -2.40783908      -2.68775007      -0.67686501        1 
H       2.19967238       1.93479965      -0.33224505        1 
H      -2.06412482       2.35836860       0.14468207        1 
H       1.29572187       1.53705820       2.47616793        1 
H       1.26121452      -0.21823520       2.64551969        1 
H       2.62164020       0.56153952       1.82484162        1 
H       0.18306281       3.68668997      -0.39623333        1 
H       0.30232057       3.03661488       1.26038243        1 
H      -1.59799074       1.29250843      -2.23345923        1 
H      -0.90413645       0.98066168       1.90037451        1 
