32
Lattice="0.0 0.0 0.0 0.0 0.0 0.0 0.0 0.0 0.0" Properties=species:S:1:pos:R:3:Z:I:1 pbc="F F F"
C      -0.56358437       0.62443980      -0.92142986        6 
C      -0.69999774      -0.86214757      -0.41528695        6 
C       0.65029823       1.49496734      -0.66308442        6 
C       0.50293871      -1.54929953       0.22052886        6 
O       1.21537122       1.32308941       0.54484565        8 
O       0.97780101       2.38221191      -1.41921869        8 
O       1.66789065      -1.16109386      -0.33372182        8 
O       0.41364079      -2.51383104       0.94412066        8 
C       2.83436203      -1.90495679       0.05650942        6 
C       2.31100158       2.19627762       0.85904831        6 
C      -1.81163334       1.31683375      -0.19476760        6 
C      -1.52418378       1.30833324       1.30145432        6 
C      -1.61046627       0.04220295       1.72137882        6 
C      -1.96338427      -0.81506407       0.51652291        6 
C      -2.85187786       0.18104209      -0.26745132        6 
C      -0.97352027      -1.78842442      -1.64098658        6 
H       2.99205211      -1.83040647       1.13351346        1 
H       1.99036639       3.23928370       0.84236825        1 
H      -1.36397080      -0.34754752       2.69951092        1 
H       3.66192989      -1.45112837      -0.48445772        1 
H       2.72525612      -2.95603784      -0.21626760        1 
H       2.63252177       1.90868524       1.85783832        1 
H       3.12128613       2.06211255       0.14035811        1 
H      -2.36837326      -1.80251607       0.72787962        1 
H      -2.07064242       2.27551057      -0.64094765        1 
H      -1.83539009      -1.44011836      -2.20933855        1 
H      -0.11158199      -1.80175645      -2.31169644        1 
H      -1.17049649      -2.80827617      -1.30467573        1 
H      -3.76719549       0.42581012       0.27298163        1 
H      -3.10484827      -0.12694557      -1.28304950        1 
H      -1.18969272       2.16497186       1.87006109        1 
H      -0.71839010       0.66740152      -1.99894185        1 
