32
Lattice="0.0 0.0 0.0 0.0 0.0 0.0 0.0 0.0 0.0" Properties=species:S:1:pos:R:3:Z:I:1 pbc="F F F"
C      -0.82025719       0.54230322      -0.83569373        6 
C      -0.36679072      -0.93822073      -0.47630507        6 
C       0.06737149       1.76027642      -0.68944682        6 
C       0.93303663      -1.10485637       0.33274669        6 
O       0.98156085       1.67666061       0.28496614        8 
O      -0.06817917       2.73778312      -1.39160662        8 
O       1.92431811      -1.62329548      -0.43366075        8 
O       1.11129887      -0.80489337       1.48476059        8 
C       3.19381758      -1.79785893       0.21654361        6 
C       1.82115074       2.82770877       0.48136264        6 
C      -2.20123197       0.71259744      -0.08104148        6 
C      -1.93616182       0.67981878       1.41094772        6 
C      -1.58422624      -0.57107797       1.72353834        6 
C      -1.60074402      -1.39101348       0.43807830        6 
C      -2.77920555      -0.70162126      -0.28960315        6 
C      -0.31115456      -1.78682168      -1.76175702        6 
H       3.57599934      -0.83915901       0.57077333        1 
H       1.21873281       3.69950315       0.74066736        1 
H      -1.23339953      -0.93230118       2.67809083        1 
H       3.85180779      -2.21782393      -0.54143784        1 
H       3.10016516      -2.47868258       1.06415725        1 
H       2.48327175       2.56027276       1.30182477        1 
H       2.39107654       3.04318406      -0.42389022        1 
H      -1.64927581      -2.47354495       0.55876639        1 
H      -2.77225646       1.55634969      -0.46556168        1 
H      -1.25983086      -1.73873261      -2.29730062        1 
H       0.47293268      -1.43564941      -2.43370694        1 
H      -0.10587349      -2.83422904      -1.53105283        1 
H      -3.72402406      -0.84375142       0.23686527        1 
H      -2.90277722      -0.98196454      -1.33687963        1 
H      -1.92390768       1.54572668       2.05887697        1 
H      -1.05066942       0.54568553      -1.90342000        1 
