32
Lattice="0.0 0.0 0.0 0.0 0.0 0.0 0.0 0.0 0.0" Properties=species:S:1:pos:R:3:Z:I:1 pbc="F F F"
C      -0.67779183       0.34196714       0.84964361        6 
C       0.83364698       0.72894549       0.50164222        6 
C      -1.22774058      -1.04070768       0.53121573        6 
C       1.66880477      -0.21019032      -0.37753592        6 
O      -2.47456231      -0.95442157       0.00298053        8 
O      -0.69715545      -2.09710773       0.76051547        8 
O       1.85256212      -1.40840680       0.18778450        8 
O       2.22101382       0.12743610      -1.40032924        8 
C       2.64529644      -2.35659041      -0.54448478        6 
C      -3.13132002      -2.20441310      -0.26876981        6 
C      -1.49550236       1.53205338       0.23658946        6 
C      -1.33563106       1.44932550      -1.27453632        6 
C      -0.07713872       1.79332119      -1.56331584        6 
C       0.62587708       2.10297288      -0.24827155        6 
C      -0.55042060       2.71015522       0.54645988        6 
C       1.65148942       0.90215226       1.80235203        6 
H       2.21730736      -2.52756146      -1.53341958        1 
H      -3.24591850      -2.78468500       0.64841501        1 
H       0.41590157       1.75554992      -2.52315805        1 
H       2.61546358      -3.26950928       0.04576400        1 
H       3.67026100      -1.99763294      -0.65433020        1 
H      -4.10387821      -1.93746004      -0.67706470        1 
H      -2.55883272      -2.78808027      -0.99137426        1 
H       1.54552639       2.68062997      -0.32157192        1 
H      -2.51464459       1.59153651       0.61199119        1 
H       1.19012302       1.64345502       2.45654422        1 
H       1.71392568      -0.04434149       2.34087532        1 
H       2.66765988       1.23732457       1.57545526        1 
H      -0.90043537       3.64760915       0.11159691        1 
H      -0.35658868       2.85641821       1.61160124        1 
H      -2.09049465       1.07290100      -1.95068622        1 
H      -0.76060641       0.39271756       1.94190181        1 
