32
Lattice="0.0 0.0 0.0 0.0 0.0 0.0 0.0 0.0 0.0" Properties=species:S:1:pos:R:3:Z:I:1 pbc="F F F"
C      -0.80013766       0.85434685       0.42974983        6 
C       0.57979555       0.18995199       0.74977760        6 
C      -2.00310639       0.06011032      -0.02947790        6 
C       0.94982505      -0.96870087      -0.18016278        6 
O      -2.00644869      -1.18886923       0.47390360        8 
O      -2.97105643       0.56136720      -0.55294375        8 
O       2.24039264      -1.33262258       0.03496732        8 
O       0.24916319      -1.52469597      -0.98554086        8 
C       2.73270870      -2.40752676      -0.78319363        6 
C      -3.17271243      -1.98168477       0.19811120        6 
C      -0.45178598       2.17740108      -0.31509692        6 
C       0.34731953       1.85245236      -1.56537397        6 
C       1.55528094       1.42867837      -1.17795373        6 
C       1.56029678       1.40130215       0.34750448        6 
C       0.68960230       2.64535637       0.62390352        6 
C       0.70962978      -0.23989342       2.21592581        6 
H       2.15269730      -3.31611264      -0.61281001        1 
H      -3.28401603      -2.12674271      -0.87752351        1 
H       2.34322517       1.03284850      -1.80506558        1 
H       3.76794182      -2.55247837      -0.48150236        1 
H       2.67374200      -2.14123518      -1.84006336        1 
H      -2.99786015      -2.93525235       0.69182687        1 
H      -4.06909755      -1.50028918       0.59281394        1 
H       2.53315228       1.33294509       0.82923134        1 
H      -1.31021911       2.83267158      -0.44325741        1 
H       0.54873302       0.61556471       2.87683749        1 
H      -0.03954099      -0.99864930       2.45500240        1 
H       1.70036923      -0.64926369       2.41628802        1 
H       1.16971297       3.56234858       0.27949277        1 
H       0.38211085       2.76271725       1.66622653        1 
H      -0.04816488       1.87979576      -2.57185899        1 
H      -1.17728669       1.18477757       1.40831816        1 
