32
Lattice="0.0 0.0 0.0 0.0 0.0 0.0 0.0 0.0 0.0" Properties=species:S:1:pos:R:3:Z:I:1 pbc="F F F"
C       0.90775171      -0.63732474       0.79531446        6 
C      -0.66047204      -0.62626392       0.63046026        6 
C       1.78926440       0.57087544       0.54273832        6 
C      -1.31286907       0.72742457       0.37452813        6 
O       1.40207471       1.32945015      -0.49289470        8 
O       2.84387582       0.72570324       1.11780005        8 
O      -2.46145619       0.57419736      -0.32595255        8 
O      -0.91999947       1.79543510       0.76853161        8 
C      -3.21718464       1.77306107      -0.57276123        6 
C       2.24132685       2.44955235      -0.81291507        6 
C       1.32807347      -1.76790263      -0.25536328        6 
C       1.01339076      -1.23379414      -1.64522503        6 
C      -0.31650820      -1.20340846      -1.77247983        6 
C      -0.91196587      -1.72100377      -0.47354453        6 
C       0.16369255      -2.76365230      -0.08606441        6 
C      -1.31786356      -1.05504142       1.97594581        6 
H      -3.52348521       2.23313680       0.36818212        1 
H       3.24986567       2.11664331      -1.06413531        1 
H      -0.89076055      -0.78591402      -2.58816120        1 
H      -4.08667777       1.45497072      -1.14418570        1 
H      -2.62219939       2.48719299      -1.14398209        1 
H       1.76909847       2.92841989      -1.66820539        1 
H       2.28829701       3.13907022       0.03112937        1 
H      -1.94744961      -2.05262284      -0.51450577        1 
H       2.34039826      -2.13215816      -0.08902024        1 
H      -0.93399091      -2.01677290       2.31816289        1 
H      -1.11118192      -0.31550704       2.75298158        1 
H      -2.40092539      -1.14356511       1.85980292        1 
H       0.21345980      -3.58486251      -0.80273034        1 
H       0.06823890      -3.16844923       0.92267496        1 
H       1.74680285      -0.84483651      -2.33799080        1 
H       1.17096247      -0.97970660       1.79514733        1 
