32
Lattice="0.0 0.0 0.0 0.0 0.0 0.0 0.0 0.0 0.0" Properties=species:S:1:pos:R:3:Z:I:1 pbc="F F F"
C      -0.09632598      -1.10490689       0.62505638        6 
C      -1.03521941       0.17720529       0.68539318        6 
C       1.42274278      -1.17593557       0.61315276        6 
C      -0.53219558       1.60475652       0.42791486        6 
O       2.07103755      -0.24602553      -0.09648406        8 
O       1.99296749      -2.10348238       1.14782768        8 
O       0.40461980       1.70752304      -0.51854209        8 
O      -1.03995745       2.57547334       0.94676298        8 
C       0.80641595       3.03784603      -0.88071194        6 
C       3.49911702      -0.40114269      -0.17900567        6 
C      -0.68619442      -1.93574562      -0.59046125        6 
C      -0.47573417      -1.13185883      -1.85931610        6 
C      -1.30748034      -0.08712103      -1.81421271        6 
C      -2.06907711      -0.16340917      -0.50076778        6 
C      -2.19239388      -1.69648784      -0.36055927        6 
C      -1.76406564       0.20098008       2.04341617        6 
H      -0.03892619       3.59839461      -1.28429958        1 
H       3.75361379      -1.34443830      -0.66492508        1 
H      -1.35573708       0.74057750      -2.50809675        1 
H       1.57638284       2.90699098      -1.63832123        1 
H       1.20432719       3.56861453      -0.01464389        1 
H       3.84408661       0.44238100      -0.77337983        1 
H       3.94581958      -0.38036399       0.81601187        1 
H      -2.97854234       0.43192676      -0.42940659        1 
H      -0.33326934      -2.96598521      -0.59514072        1 
H      -2.22650484      -0.76323955       2.25637535        1 
H      -1.06050831       0.41954154       2.85109148        1 
H      -2.53360230       0.97195767       2.05857126        1 
H      -2.80540069      -2.12954831      -1.15254000        1 
H      -2.55586234      -2.03853381       0.60969072        1 
H       0.29005262      -1.32782535      -2.59745639        1 
H      -0.32780247      -1.68392704       1.51952949        1 
