32
Lattice="0.0 0.0 0.0 0.0 0.0 0.0 0.0 0.0 0.0" Properties=species:S:1:pos:R:3:Z:I:1 pbc="F F F"
C      -0.68627524       0.97820936       0.52903718        6 
C       0.62724257       0.14528784       0.78820972        6 
C      -1.86068561       0.29028834      -0.12949910        6 
C       0.74590879      -1.11753365      -0.06510088        6 
O      -2.39112804      -0.63262361       0.70140435        8 
O      -2.34912296       0.60049744      -1.18815298        8 
O       2.02708288      -1.55374599      -0.08115068        8 
O      -0.14636058      -1.70987944      -0.61916292        8 
C       2.27408742      -2.75494149      -0.83408308        6 
C      -3.43905911      -1.44601172       0.14775945        6 
C      -0.18047668       2.26303480      -0.19085652        6 
C       0.46854119       1.84959801      -1.50288698        6 
C       1.61999339       1.23630689      -1.20730066        6 
C       1.73418777       1.18772413       0.31166254        6 
C       1.07744234       2.53712178       0.66817186        6 
C       0.77383302      -0.26264928       2.26360761        6 
H       1.70814444      -3.59074787      -0.41950676        1 
H      -3.04688221      -2.02997941      -0.68633304        1 
H       2.29383972       0.73756350      -1.89107631        1 
H       3.34320953      -2.93661008      -0.74786601        1 
H       1.99032378      -2.61425909      -1.87827581        1 
H      -3.75785126      -2.10134132       0.95582666        1 
H      -4.26910050      -0.82704314      -0.19578008        1 
H       2.72026324       0.97384497       0.71853241        1 
H      -0.93616809       3.04398180      -0.25615437        1 
H       0.77291680       0.62303386       2.90273859        1 
H      -0.05921840      -0.90124412       2.56783554        1 
H       1.70846001      -0.80281481       2.42613215        1 
H       1.65869052       3.38592572       0.30512549        1 
H       0.86416970       2.66796918       1.73256016        1 
H       0.00479420       1.95390937      -2.47329082        1 
H      -1.06233460       1.27232696       1.51401897        1 
