32
Lattice="0.0 0.0 0.0 0.0 0.0 0.0 0.0 0.0 0.0" Properties=species:S:1:pos:R:3:Z:I:1 pbc="F F F"
C      -0.40433001      -0.92411648       0.61210020        6 
C      -0.72843202       0.63493384       0.69538817        6 
C       0.87324798      -1.28742969      -0.10988952        6 
C       0.17132857       1.48936691      -0.20044942        6 
O       1.87132401      -1.51271579       0.77432234        8 
O       1.01147701      -1.40734835      -1.30346829        8 
O       1.44356994       1.48965978       0.26076279        8 
O      -0.15500770       2.06733152      -1.20550601        8 
C       2.41259125       2.15825677      -0.56688385        6 
C       3.15497926      -1.81960641       0.20530031        6 
C      -1.71471299      -1.53693039       0.01459063        6 
C      -1.91092045      -1.00982579      -1.39643678        6 
C      -2.23018244       0.28311638      -1.29994589        6 
C      -2.22852314       0.64921378       0.17814013        6 
C      -2.75432352      -0.67940444       0.77246663        6 
C      -0.61053340       1.15622344       2.13906054        6 
H       2.44678413       1.69292626      -1.55332259        1 
H       3.50141688      -0.99382865      -0.41866920        1 
H      -2.34869556       0.99048384      -2.10600498        1 
H       3.36337678       2.04047950      -0.05116332        1 
H       2.16310688       3.21464657      -0.67465763        1 
H       3.82212634      -1.96352455       1.05250523        1 
H       3.10040388      -2.72635802      -0.39913929        1 
H      -2.75291511       1.56588094       0.44668471        1 
H      -1.76909025      -2.61843088       0.14013226        1 
H      -1.30780958       0.63380576       2.79600598        1 
H       0.40027722       1.01139974       2.52169313        1 
H      -0.84429578       2.22416036       2.18223877        1 
H      -3.77660631      -0.89380540       0.45888369        1 
H      -2.68185517      -0.75525045       1.86012768        1 
H      -1.71455107      -1.57272236      -2.29725736        1 
H      -0.28464545      -1.27974927       1.63695600        1 
