32
Lattice="0.0 0.0 0.0 0.0 0.0 0.0 0.0 0.0 0.0" Properties=species:S:1:pos:R:3:Z:I:1 pbc="F F F"
C       0.19315993       1.12298415       0.37858287        6 
C       0.73905975      -0.27552479       0.83799453        6 
C      -1.26502116       1.46895913       0.14278977        6 
C       0.11144135      -1.56892225       0.31060445        6 
O      -2.12605884       0.45158541       0.30789444        8 
O      -1.62942322       2.61779956       0.02327430        8 
O      -0.64436565      -1.42276762      -0.78509682        8 
O       0.39465896      -2.65500797       0.76743308        8 
C      -1.13150858      -2.63267315      -1.38704424        6 
C      -3.52393610       0.79318473       0.27566996        6 
C       1.26305307       1.67329526      -0.62951057        6 
C       1.39723162       0.72057281      -1.80384451        6 
C       1.97706524      -0.39638982      -1.35318111        6 
C       2.19599135      -0.22849813       0.14408951        6 
C       2.52575542       1.28026223       0.17722360        6 
C       0.83564271      -0.37030190       2.36589800        6 
H      -0.30039543      -3.26594059      -1.70293780        1 
H      -3.78414227       1.24851936      -0.68065575        1 
H       2.13953676      -1.31609447      -1.90015848        1 
H      -1.71709280      -2.31187795      -2.24604987        1 
H      -1.75349287      -3.18792461      -0.68328940        1 
H      -4.05244967      -0.14846139       0.40862765        1 
H      -3.76723152       1.48886028       1.08050926        1 
H       2.89203648      -0.92132085       0.61371936        1 
H       1.11412045       2.72537425      -0.86361176        1 
H       1.45417383       0.43665890       2.76424449        1 
H      -0.15724767      -0.28945712       2.81800916        1 
H       1.26743341      -1.32563104       2.66316978        1 
H       3.45043616       1.50221278      -0.35694710        1 
H       2.56791258       1.71732978       1.17752356        1 
H       1.00092007       0.89999451      -2.79449481        1 
H       0.34857372       1.75551180       1.26164354        1 
