32
Lattice="0.0 0.0 0.0 0.0 0.0 0.0 0.0 0.0 0.0" Properties=species:S:1:pos:R:3:Z:I:1 pbc="F F F"
C       0.23840463       1.11778226       0.38886865        6 
C       0.73012111      -0.30572909       0.83082869        6 
C      -1.20762381       1.48828619       0.12820332        6 
C       0.02671131      -1.55570237       0.29563043        6 
O      -2.08549182       0.50006920       0.37698919        8 
O      -1.55157202       2.63259334      -0.06558868        8 
O      -0.66072695      -1.36637373      -0.84003382        8 
O       0.18650680      -2.65216193       0.78487550        8 
C      -1.22618295      -2.54077064      -1.44308667        6 
C      -3.47767364       0.86189637       0.33201523        6 
C       1.34064924       1.64832776      -0.59427977        6 
C       1.44190763       0.72131140      -1.79177835        6 
C       1.96630748      -0.43194386      -1.36562429        6 
C       2.18504817      -0.31140732       0.13615284        6 
C       2.57937951       1.18083069       0.20902353        6 
C       0.82836041      -0.42221997       2.35715080        6 
H      -0.44157676      -3.25248556      -1.70656061        1 
H      -3.74162895       1.24089721      -0.65620643        1 
H       2.08956716      -1.34394479      -1.93515277        1 
H      -1.73942505      -2.18858017      -2.33545919        1 
H      -1.92800087      -3.02268848      -0.76060494        1 
H      -4.02048660      -0.05594036       0.54791892        1 
H      -3.69957781       1.62593292       1.07882460        1 
H       2.85007828      -1.04407512       0.59052866        1 
H       1.23860538       2.71124290      -0.80288618        1 
H       1.47346016       0.35961925       2.76295173        1 
H      -0.16035107      -0.31547352       2.81245705        1 
H       1.22924702      -1.39436356       2.64248516        1 
H       3.51634851       1.37723014      -0.31360433        1 
H       2.63288179       1.58955793       1.22060630        1 
H       1.05937340       0.94258263      -2.77934215        1 
H       0.39005034       1.73316322       1.28569421        1 
