32
Lattice="0.0 0.0 0.0 0.0 0.0 0.0 0.0 0.0 0.0" Properties=species:S:1:pos:R:3:Z:I:1 pbc="F F F"
C      -0.78238308       0.71891143       0.80005028        6 
C       0.76795562       0.43954723       0.71092674        6 
C      -1.69307793      -0.48409709       0.67293386        6 
C       1.11731994      -0.84706378      -0.03065900        6 
O      -2.42284682      -0.47707097      -0.45775361        8 
O      -1.80139051      -1.32134065       1.53748652        8 
O       2.45936340      -0.99462411      -0.11785177        8 
O       0.34562853      -1.63376125      -0.51984609        8 
C       2.91697077      -2.15398339      -0.83797212        6 
C      -3.24018922      -1.63989846      -0.67860395        6 
C      -0.98929285       1.93312530      -0.16670587        6 
C      -0.58131510       1.52254177      -1.57242029        6 
C       0.74892513       1.39455030      -1.58900426        6 
C       1.24897704       1.67308837      -0.17930920        6 
C       0.24667012       2.76845142       0.24447206        6 
C       1.42324111       0.42424168       2.10185375        6 
H       2.55799514      -3.06639474      -0.35969332        1 
H      -3.96500022      -1.76050361       0.12804749        1 
H       1.36143925       1.02176456      -2.39957325        1 
H       4.00319995      -2.10512848      -0.80622102        1 
H       2.56031919      -2.12737849      -1.86910945        1 
H      -3.74610287      -1.46418524      -1.62582388        1 
H      -2.60968667      -2.52813716      -0.73702689        1 
H       2.31251204       1.87674670      -0.06872583        1 
H      -1.96843028       2.39956401      -0.06866276        1 
H       1.23226758       1.36455578       2.62380183        1 
H       1.00973570      -0.38570256       2.70821874        1 
H       2.50186211       0.28611787       2.02140017        1 
H       0.35921220       3.67831457      -0.34728874        1 
H       0.27506997       3.01697110       1.30828617        1 
H      -1.27440591       1.28123795      -2.36517473        1 
H      -0.97254769       1.07297024       1.81654134        1 
