32
Lattice="0.0 0.0 0.0 0.0 0.0 0.0 0.0 0.0 0.0" Properties=species:S:1:pos:R:3:Z:I:1 pbc="F F F"
C      -0.47328665      -0.99436069       0.65060501        6 
C      -0.75242680       0.56238737       0.77808300        6 
C       0.87688852      -1.43698302       0.13209699        6 
C       0.35273447       1.46494356       0.21940971        6 
O       1.87507601      -0.83271657       0.81489941        8 
O       1.06317130      -2.27708550      -0.71278601        8 
O       0.74473364       1.10723224      -1.02015786        8 
O       0.84094226       2.39671427       0.81204361        8 
C       1.80875245       1.87739719      -1.60132353        6 
C       3.21446453      -1.17152334       0.41531045        6 
C      -1.68767351      -1.53238837      -0.18199630        6 
C      -1.58243860      -0.96294141      -1.58667073        6 
C      -1.84256660       0.34495801      -1.50768873        6 
C      -2.11547278       0.67544620      -0.04803340        6 
C      -2.81358178      -0.63918458       0.38179067        6 
C      -0.96364920       0.96823606       2.24572587        6 
H       1.51282998       2.92191245      -1.71024473        1 
H       3.36506552      -0.93984969      -0.64042074        1 
H      -1.75845486       1.07656412      -2.29922650        1 
H       1.99100722       1.42658584      -2.57464398        1 
H       2.70224973       1.82313342      -0.97697260        1 
H       3.86550460      -0.56283705       1.03890599        1 
H       3.40695633      -2.23298682       0.57879271        1 
H      -2.63825460       1.61133931       0.14820431        1 
H      -1.81158839      -2.61139992      -0.10877521        1 
H      -1.73977473       0.36085677       2.71174486        1 
H      -0.03894388       0.83919692       2.81164210        1 
H      -1.25033345       2.01806772       2.32221389        1 
H      -3.75999687      -0.78841645      -0.13969178        1 
H      -2.97204306      -0.74271638       1.45663462        1 
H      -1.23709122      -1.51603868      -2.44819645        1 
H      -0.52751740      -1.40823310       1.66322397        1 
