32
Lattice="0.0 0.0 0.0 0.0 0.0 0.0 0.0 0.0 0.0" Properties=species:S:1:pos:R:3:Z:I:1 pbc="F F F"
C      -0.48297631       0.54698161       0.75103938        6 
C       1.04568717       0.26184356       0.52799618        6 
C      -1.54833168      -0.24502284       0.01757147        6 
C       1.48389165      -1.04554869      -0.12062954        6 
O      -2.75292470       0.02912838       0.58876503        8 
O      -1.43185348      -0.97889237      -0.92844286        8 
O       0.69114408      -2.07393362       0.22130488        8 
O       2.56257071      -1.19362924      -0.64859787        8 
C       1.08201825      -3.37279774      -0.25124953        6 
C      -3.89642954      -0.58544272      -0.02874615        6 
C      -0.60652941       2.03979279       0.16341824        6 
C      -0.43629981       1.89699629      -1.34435097        6 
C       0.84231405       1.58237557      -1.57378331        6 
C       1.55210955       1.53945378      -0.23185943        6 
C       0.76562874       2.63825650       0.52272047        6 
C       1.73667011       0.14997404       1.92341554        6 
H       1.07934029      -3.39255110      -1.34203802        1 
H      -3.80310798      -1.67245714      -0.01272761        1 
H       1.29089272       1.29461125      -2.51469713        1 
H       0.33402311      -4.05932836       0.13963481        1 
H       2.07666882      -3.63377609       0.11415546        1 
H      -4.75253773      -0.26623906       0.56211339        1 
H      -4.00061930      -0.25202787      -1.06298338        1 
H       2.63719118       1.60971972      -0.25763999        1 
H      -1.50133275       2.55259674       0.50961991        1 
H       1.50706338       1.00852467       2.55406425        1 
H       1.39393786      -0.74789895       2.44243235        1 
H       2.81976173       0.08824401       1.80093343        1 
H       0.90843928       3.62349177       0.07641207        1 
H       0.96518462       2.69586774       1.59318689        1 
H      -1.24478373       1.90803970      -2.06318804        1 
H      -0.73437844       0.54638162       1.81093647        1 
