32
Lattice="0.0 0.0 0.0 0.0 0.0 0.0 0.0 0.0 0.0" Properties=species:S:1:pos:R:3:Z:I:1 pbc="F F F"
C      -0.79380509       0.35846262       0.77296374        6 
C       0.78084514       0.42510101       0.65236772        6 
C      -1.60782230      -0.77533826       0.15180518        6 
C       1.54309929      -0.84215177       0.27006125        6 
O      -2.92309425      -0.40511465       0.17997783        8 
O      -1.26111546      -1.85240183      -0.24435100        8 
O       2.63635801      -0.53436909      -0.47640039        8 
O       1.27142410      -1.96560569       0.59463803        8 
C       3.46064774      -1.65082941      -0.85562822        6 
C      -3.85598324      -1.37698323      -0.31948450        6 
C      -1.21709199       1.68907513      -0.00862397        6 
C      -0.94889146       1.36157607      -1.47497400        6 
C       0.37807604       1.32132625      -1.63573537        6 
C       1.01165851       1.65749636      -0.29489383        6 
C      -0.04195361       2.64127806       0.26239218        6 
C       1.36831556       0.71083472       2.07024683        6 
H       3.84300789      -2.16292364       0.02884968        1 
H      -3.78507749      -2.30686546       0.24712884        1 
H       0.92749439       1.01352433      -2.51480211        1 
H       4.27693293      -1.22543983      -1.43596041        1 
H       2.88793381      -2.35845260      -1.45719393        1 
H      -4.83893988      -0.92666624      -0.19552553        1 
H      -3.66353613      -1.58854659      -1.37309734        1 
H       2.04877633       1.98248172      -0.32066549        1 
H      -2.21950472       2.02744506       0.23724437        1 
H       0.88495764       1.56231308       2.54897824        1 
H       1.22698765      -0.16102870       2.71289506        1 
H       2.43896124       0.92023036       2.00252046        1 
H      -0.11107464       3.55109150      -0.33611268        1 
H       0.09021393       2.91167588       1.31004833        1 
H      -1.70750455       1.08613129      -2.19583557        1 
H      -1.09787875       0.41802128       1.81991128        1 
