32
Lattice="0.0 0.0 0.0 0.0 0.0 0.0 0.0 0.0 0.0" Properties=species:S:1:pos:R:3:Z:I:1 pbc="F F F"
C      -0.60593106       0.52946126      -0.95133920        6 
C      -0.56941811      -0.93648851      -0.37917187        6 
C       0.42965784       1.59335253      -0.62827218        6 
C       0.72121108      -1.48626289       0.21993714        6 
O       1.17407566       1.34843891       0.46148830        8 
O       0.44480951       2.65763830      -1.20627270        8 
O       1.81299952      -1.04324919      -0.43315828        8 
O       0.75531700      -2.42290930       0.98420323        8 
C       3.05669930      -1.67595381      -0.09305167        6 
C       2.03440839       2.41383096       0.89561809        6 
C      -1.96354644       1.08225163      -0.28507012        6 
C      -1.66940013       1.23351123       1.20293425        6 
C      -1.55951208       0.00332849       1.71484519        6 
C      -1.80615542      -0.98661487       0.58757728        6 
C      -2.83537015      -0.18546945      -0.24863159        6 
C      -0.78092418      -1.93642175      -1.56194843        6 
H       3.26778856      -1.55843341       0.97079128        1 
H       1.44801205       3.29567073       1.16010883        1 
H      -1.24365747      -0.27047486       2.71224409        1 
H       3.81191036      -1.17045314      -0.69124089        1 
H       3.02317813      -2.73999051      -0.33507035        1 
H       2.55650476       2.02563609       1.76755892        1 
H       2.74194616       2.67971312       0.10897653        1 
H      -2.06769004      -2.00022953       0.88408169        1 
H      -2.34671017       1.95961441      -0.80152126        1 
H      -1.67594222      -1.69530040      -2.13440098        1 
H       0.07002963      -1.90231939      -2.24526240        1 
H      -0.88050664      -2.95434011      -1.17990809        1 
H      -3.76714452      -0.02386467       0.29557524        1 
H      -3.06319945      -0.60427171      -1.22882217        1 
H      -1.45759694       2.17181103       1.69825154        1 
H      -0.71191913       0.52320490      -2.03564007        1 
