32
Lattice="0.0 0.0 0.0 0.0 0.0 0.0 0.0 0.0 0.0" Properties=species:S:1:pos:R:3:Z:I:1 pbc="F F F"
C       1.05984206      -0.39560390      -0.55270874        6 
C       0.00956481       0.77023669      -0.65062556        6 
C       0.70881085      -1.83632660      -0.23753779        6 
C      -1.21953753       0.63037934       0.25282475        6 
O      -0.60460791      -2.06832991      -0.08697563        8 
O       1.52765184      -2.72429219      -0.31875328        8 
O      -2.31287586       1.19936460      -0.31594195        8 
O      -1.24995235       0.14267700       1.35336483        8 
C      -3.51826837       1.16074507       0.46563614        6 
C      -0.99736043      -3.44349413       0.06757406        6 
C       2.29761092       0.23132253       0.18292372        6 
C       1.88868828       0.67330603       1.57512146        6 
C       1.07442396       1.72449452       1.44118686        6 
C       0.89374030       1.97923456      -0.04914731        6 
C       2.30884398       1.59789448      -0.54272539        6 
C      -0.38293825       1.03675392      -2.11219556        6 
H      -3.79968947       0.12888864       0.68192709        1 
H      -0.51378560      -3.88178358       0.94141262        1 
H       0.51476935       2.21843050       2.22324263        1 
H      -4.27646265       1.64403932      -0.14728509        1 
H      -3.38467541       1.69736569       1.40645080        1 
H      -2.07672442      -3.42018183       0.20048075        1 
H      -0.72804424      -4.02015278      -0.81914958        1 
H       0.49966750       2.95408810      -0.33559758        1 
H       3.18581707      -0.39246433       0.10530139        1 
H       0.50750675       1.16584901      -2.73077088        1 
H      -0.95506190       0.19795687      -2.51719135        1 
H      -0.99660473       1.93261643      -2.20087170        1 
H       3.07038124       2.27357285      -0.15192479        1 
H       2.40765524       1.52367053      -1.62775967        1 
H       2.13000190       0.14494462       2.48751195        1 
H       1.41031473      -0.53236637      -1.58300817        1 
