32
Lattice="0.0 0.0 0.0 0.0 0.0 0.0 0.0 0.0 0.0" Properties=species:S:1:pos:R:3:Z:I:1 pbc="F F F"
C      -0.26410464      -1.09683296       0.45280579        6 
C      -0.74754540       0.35069372       0.83018255        6 
C       1.17120729      -1.34516775       0.05525296        6 
C      -0.01176799       1.52794516       0.18695097        6 
O       2.01973826      -0.65699729       0.85216416        8 
O       1.53639678      -2.18854420      -0.72728098        8 
O       0.83456768       1.17332219      -0.79571385        8 
O      -0.24790724       2.68152465       0.46328890        8 
C       1.43655090       2.24229605      -1.54410557        6 
C       3.42084522      -0.87203188       0.61909653        6 
C      -1.38153194      -1.66085979      -0.48026095        6 
C      -1.47834631      -0.78682539      -1.71959550        6 
C      -1.99517155       0.38884460      -1.34740460        6 
C      -2.20712000       0.33699366       0.15976104        6 
C      -2.60877322      -1.14708870       0.31124334        6 
C      -0.81745194       0.57588080       2.34505027        6 
H       0.66900927       2.83011214      -2.05090761        1 
H       3.68590557      -0.58044435      -0.39888851        1 
H      -2.11900727       1.27553237      -1.95573260        1 
H       2.08464693       1.75577729      -2.26987964        1 
H       2.01167325       2.89432594      -0.88555078        1 
H       3.93602768      -0.24220755       1.34135462        1 
H       3.68117612      -1.92103274       0.76929054        1 
H      -2.86132953       1.09568853       0.58549470        1 
H      -1.29568301      -2.73201497      -0.65119780        1 
H      -1.48245764      -0.15541109       2.81005560        1 
H       0.17318500       0.46825550       2.79376390        1 
H      -1.19043075       1.57693760       2.56380580        1 
H      -3.55367106      -1.36678882      -0.18765092        1 
H      -2.64936070      -1.50203215       1.34420819        1 
H      -1.09785041      -1.06210839      -2.69370945        1 
H      -0.33350849      -1.67645180       1.38307241        1 
