32
Lattice="0.0 0.0 0.0 0.0 0.0 0.0 0.0 0.0 0.0" Properties=species:S:1:pos:R:3:Z:I:1 pbc="F F F"
C      -0.72050119       0.82270576       0.57820483        6 
C       0.71294779       0.17317236       0.74759279        6 
C      -1.79022685       0.08222445      -0.20486240        6 
C       0.89628356      -1.17899058       0.07240929        6 
O      -2.72794779      -0.40692162       0.64128076        8 
O      -1.84211053      -0.06058839      -1.39936650        8 
O       2.21127561      -1.48903137      -0.01622621        8 
O       0.02590130      -1.90565823      -0.33443317        8 
C       2.51779089      -2.74795161      -0.64300713        6 
C      -3.76097088      -1.20125233       0.03202544        6 
C      -0.37166988       2.19388896      -0.12607054        6 
C       0.19862254       1.87721482      -1.50347653        6 
C       1.41493878       1.35283765      -1.32557980        6 
C       1.66724537       1.29175561       0.17043999        6 
C       0.92368511       2.56757275       0.62340527        6 
C       0.99580125      -0.08699616       2.25034849        6 
H       2.08101082      -3.57316963      -0.07822054        1 
H      -3.32117641      -2.06269150      -0.47301079        1 
H       2.06177491       0.92296282      -2.07845074        1 
H       3.60350934      -2.81577331      -0.64297095        1 
H       2.13017737      -2.76818408      -1.66282731        1 
H      -4.40372123      -1.52018324       0.84997986        1 
H      -4.32546830      -0.60948028      -0.69074825        1 
H       2.70057286       1.16411928       0.48628571        1 
H      -1.19488502       2.90755899      -0.09956004        1 
H       0.87812910       0.82850404       2.83217228        1 
H       0.30005277      -0.82966328       2.65058460        1 
H       2.01397084      -0.45522056       2.39038728        1 
H       1.38709101       3.47360650       0.22989547        1 
H       0.79910454       2.66282392       1.70454271        1 
H      -0.34929970       1.96276742      -2.42975895        1 
H      -1.12779990       1.01889805       1.56916215        1 
