32
Lattice="0.0 0.0 0.0 0.0 0.0 0.0 0.0 0.0 0.0" Properties=species:S:1:pos:R:3:Z:I:1 pbc="F F F"
C       0.80817139      -0.77649309       0.77815502        6 
C      -0.74210361      -0.48765972       0.66104879        6 
C       1.81992965       0.34162141       0.59326249        6 
C      -1.11937787       0.92435316       0.22614962        6 
O       1.91894346       0.77575236      -0.67479734        8 
O       2.56113223       0.70557990       1.47737139        8 
O      -2.41761629       0.96042191      -0.15695384        8 
O      -0.40912099       1.89782365       0.21506054        8 
C      -2.91884499       2.24168988      -0.57820603        6 
C       2.79372601       1.89271561      -0.89441915        6 
C       0.99523408      -1.96869740      -0.24849937        6 
C       0.67541673      -1.46024470      -1.64721236        6 
C      -0.64238355      -1.24704914      -1.70909497        6 
C      -1.22391656      -1.60022075      -0.35145991        6 
C      -0.29323422      -2.77042228       0.04249335        6 
C      -1.41360338      -0.67140006       2.04764270        6 
H      -2.83910239       2.96945552       0.23069613        1 
H       3.80771496       1.66320685      -0.56396926        1 
H      -1.19937700      -0.79640343      -2.51964977        1 
H      -3.96118822       2.07279452      -0.84012538        1 
H      -2.35927354       2.60359083      -1.44218838        1 
H       2.76922829       2.07345200      -1.96732703        1 
H       2.41990509       2.76336868      -0.35326539        1 
H      -2.29818769      -1.76907089      -0.31193152        1 
H       1.94711014      -2.48537151      -0.12934094        1 
H      -1.21003501      -1.66637512       2.44575145        1 
H      -1.02702272       0.06082535       2.76146003        1 
H      -2.49495914      -0.54522693       1.96963825        1 
H      -0.40985334      -3.62793818      -0.62192266        1 
H      -0.38705331      -3.09823052       1.07990797        1 
H       1.41376636      -1.22184138      -2.39836799        1 
H       1.00881116      -1.15183567       1.78084852        1 
