32
Lattice="0.0 0.0 0.0 0.0 0.0 0.0 0.0 0.0 0.0" Properties=species:S:1:pos:R:3:Z:I:1 pbc="F F F"
C      -0.49832938       0.74742634      -0.89770059        6 
C      -0.82015818      -0.76391119      -0.51068647        6 
C       0.93912014       1.20880086      -0.78832004        6 
C       0.20278711      -1.49411817       0.36196456        6 
O       1.22705846       1.75497564       0.41248836        8 
O       1.75385950       1.08256302      -1.66977848        8 
O       1.45185903      -1.37258651      -0.12054415        8 
O      -0.06988667      -2.17165172       1.32379789        8 
C       2.48648423      -2.08641243       0.57767555        6 
C       2.59792644       2.13894157       0.61375154        6 
C      -1.61048089       1.55200629      -0.14694229        6 
C      -1.46523979       1.34116792       1.35270394        6 
C      -1.81641826       0.08005441       1.61963515        6 
C      -2.17218174      -0.58460564       0.29500094        6 
C      -2.80892315       0.61665086      -0.43950044        6 
C      -0.99664853      -1.62865764      -1.77576422        6 
H       2.54951825      -1.74967834       1.61370775        1 
H       2.89564479       2.89865029      -0.11068889        1 
H      -1.74951239      -0.43951537       2.56399386        1 
H       3.40400057      -1.85832815       0.03980948        1 
H       2.28651115      -3.15889245       0.56126149        1 
H       2.64382267       2.53504831       1.62596761        1 
H       3.25131210       1.27122184       0.50930784        1 
H      -2.74803308      -1.50648313       0.35635533        1 
H      -1.68828401       2.58525215      -0.48474652        1 
H      -1.80255896      -1.23466246      -2.39815215        1 
H      -0.07910560      -1.63489019      -2.36703663        1 
H      -1.24815241      -2.65837614      -1.50663177        1 
H      -3.73036267       0.95047780       0.03909482        1 
H      -2.99025220       0.45239183      -1.50502876        1 
H      -1.05663445       2.06987292       2.03768953        1 
H      -0.69916087       0.82971730      -1.96840112        1 
