32
Lattice="0.0 0.0 0.0 0.0 0.0 0.0 0.0 0.0 0.0" Properties=species:S:1:pos:R:3:Z:I:1 pbc="F F F"
C       0.75326287      -0.67546431      -0.79455533        6 
C       0.43775697       0.86320403      -0.55030693        6 
C      -0.20701532      -1.71961410      -0.26596829        6 
C      -0.77717433       1.09386449       0.36045932        6 
O      -1.49427346      -1.36109306      -0.46225458        8 
O       0.12005069      -2.78843957       0.18760589        8 
O      -1.81618112       1.64473708      -0.30186600        8 
O      -0.82502456       0.85358105       1.54298242        8 
C      -3.01541912       1.83672884       0.46436280        6 
C      -2.49156637      -2.29264531      -0.00462439        6 
C       2.21294909      -0.85747414      -0.24889915        6 
C       2.15324855      -0.69262031       1.26045036        6 
C       1.89499897       0.59410731       1.50960165        6 
C       1.78410852       1.31278266       0.17028249        6 
C       2.82476578       0.50274746      -0.64302322        6 
C       0.25250480       1.59532911      -1.89270947        6 
H      -3.37183449       0.88154584       0.85396863        1 
H      -2.40032428      -2.44203925       1.07212986        1 
H       1.68237005       1.04614219       2.46658857        1 
H      -3.73790407       2.26190400      -0.22930167        1 
H      -2.83638827       2.51670691       1.29858354        1 
H      -3.44801672      -1.83562420      -0.24942537        1 
H      -2.38277377      -3.25127549      -0.51378864        1 
H       1.89688174       2.39708332       0.19296750        1 
H       2.69503958      -1.75934529      -0.62069849        1 
H       1.12311855       1.45330360      -2.53335652        1 
H      -0.62448632       1.21767348      -2.41926624        1 
H       0.11398526       2.66749055      -1.73881407        1 
H       3.83539332       0.62830454      -0.25334434        1 
H       2.82303110       0.70153811      -1.71622405        1 
H       2.18515059      -1.50893041       1.96763222        1 
H       0.75086122      -0.83469813      -1.87964588        1 
