32
Lattice="0.0 0.0 0.0 0.0 0.0 0.0 0.0 0.0 0.0" Properties=species:S:1:pos:R:3:Z:I:1 pbc="F F F"
C       0.57217910      -0.74583034       0.48285672        6 
C      -0.90009600      -0.29657265       0.78010573        6 
C       1.71431823       0.24817020       0.46133722        6 
C      -1.41459537       1.05419386       0.26553448        6 
O       2.86770869      -0.41127474       0.17091351        8 
O       1.68015571       1.43128383       0.67827001        8 
O      -0.62881290       1.64913660      -0.63651591        8 
O      -2.52105659       1.46241473       0.54529629        8 
C      -1.15557543       2.82883905      -1.26277428        6 
C       4.06022522       0.39213500       0.14626559        6 
C       0.44985398      -1.83187557      -0.64785047        6 
C      -0.20036555      -1.21633555      -1.87300515        6 
C      -1.48003465      -0.97450908      -1.57215742        6 
C      -1.69366491      -1.37939986      -0.11958581        6 
C      -0.75709212      -2.60358115      -0.05963342        6 
C      -1.25180883      -0.42299859       2.26764950        6 
H      -2.06003250       2.58891836      -1.82598529        1 
H       4.23656308       0.84859343       1.12174337        1 
H      -2.21145048      -0.45947445      -2.18102344        1 
H      -0.36886999       3.17572474      -1.92909507        1 
H      -1.38881877       3.58806793      -0.51572887        1 
H       4.86668070      -0.29298322      -0.10667640        1 
H       3.97604127       1.17936548      -0.60485558        1 
H      -2.72569692      -1.49946824       0.20438632        1 
H       1.37470789      -2.38103339      -0.80769614        1 
H      -1.10171640      -1.44792960       2.61444921        1 
H      -0.61740107       0.23587298       2.86745358        1 
H      -2.29114380      -0.14272557       2.43755932        1 
H      -1.10000438      -3.40928570      -0.71044948        1 
H      -0.58365382      -2.99352744       0.94614149        1 
H       0.32203406      -0.94596957      -2.78096338        1 
H       0.85535451      -1.33898685       1.36355464        1 
