32
Lattice="0.0 0.0 0.0 0.0 0.0 0.0 0.0 0.0 0.0" Properties=species:S:1:pos:R:3:Z:I:1 pbc="F F F"
C      -0.77805541       0.64291123       0.60244630        6 
C       0.73768219       0.20811045       0.69736476        6 
C      -1.79946138      -0.16889453      -0.17421499        6 
C       1.11807748      -1.11781411       0.04606216        6 
O      -2.81565106      -0.52692505       0.65485723        8 
O      -1.77457578      -0.46036238      -1.34021893        8 
O       2.46795290      -1.26787075       0.07172077        8 
O       0.38768230      -1.92935826      -0.45774611        8 
C       2.97490565      -2.47127132      -0.53155937        6 
C      -3.86477171      -1.30618461       0.05413570        6 
C      -0.65225267       2.07207627      -0.09048012        6 
C      -0.13031597       1.84192630      -1.50299386        6 
C       1.15115237       1.47569635      -1.40365473        6 
C       1.50028634       1.44216035       0.07330888        6 
C       0.62444393       2.60739423       0.58514854        6 
C       1.11080453       0.03054866       2.19644262        6 
H       2.59343327      -3.35106243      -0.01055611        1 
H      -3.45976343      -2.22893431      -0.36417862        1 
H       1.79881043       1.13288380      -2.19957779        1 
H       4.05705474      -2.41007661      -0.43690128        1 
H       2.68216910      -2.52449872      -1.58137250        1 
H      -4.56377679      -1.52258096       0.85945819        1 
H      -4.35784004      -0.74070342      -0.73887452        1 
H       2.55825923       1.44986681       0.32658761        1 
H      -1.56039545       2.66779186      -0.00104545        1 
H       0.85820091       0.92087519       2.77316828        1 
H       0.56332892      -0.81176808       2.62923712        1 
H       2.17887697      -0.16076231       2.30480627        1 
H       0.94012057       3.56733609       0.17352244        1 
H       0.55357370       2.68430918       1.67179031        1 
H      -0.73879136       1.85803204      -2.39509007        1 
H      -1.16922086       0.76949452       1.61003470        1 
