32
Lattice="0.0 0.0 0.0 0.0 0.0 0.0 0.0 0.0 0.0" Properties=species:S:1:pos:R:3:Z:I:1 pbc="F F F"
C      -0.72204656       0.33624502       0.74860637        6 
C       0.80598286       0.70117013       0.57246073        6 
C      -1.21733749      -0.98940236       0.21418393        6 
C       1.60689008      -0.28145983      -0.29818207        6 
O      -2.54986441      -1.09489527       0.43224561        8 
O      -0.57343535      -1.85265702      -0.32749840        8 
O       2.22841222      -1.21363038       0.45355988        8 
O       1.67980848      -0.26190945      -1.50111317        8 
C       2.83370369      -2.29525809      -0.27544183        6 
C      -3.17537973      -2.30227051      -0.03976932        6 
C      -1.48625380       1.57397293       0.13822000        6 
C      -1.22881532       1.56338506      -1.35768566        6 
C       0.05752450       1.87587382      -1.53994479        6 
C       0.67882960       2.10570223      -0.16661164        6 
C      -0.54095833       2.71396632       0.56635754        6 
C       1.49088759       0.85562556       1.94362122        6 
H       2.06739490      -2.82658875      -0.84156199        1 
H      -2.74376207      -3.17522122       0.45251767        1 
H       0.60681945       1.87186561      -2.46828748        1 
H       3.27503033      -2.94285483       0.47965968        1 
H       3.59919347      -1.92189391      -0.95710536        1 
H      -4.22823089      -2.20119262       0.21472740        1 
H      -3.04885305      -2.39994256      -1.11918376        1 
H       1.61094957       2.67026170      -0.15180815        1 
H      -2.52466221       1.62477413       0.45873796        1 
H       0.97778814       1.59845191       2.55517079        1 
H       1.49509445      -0.09080742       2.48463213        1 
H       2.52864464       1.17579988       1.82268812        1 
H      -0.83785175       3.67417902       0.14235515        1 
H      -0.42484845       2.81488915       1.64707970        1 
H      -1.93937036       1.24252236      -2.10803414        1 
H      -0.94032794       0.30469105       1.82181364        1 
