32
Lattice="0.0 0.0 0.0 0.0 0.0 0.0 0.0 0.0 0.0" Properties=species:S:1:pos:R:3:Z:I:1 pbc="F F F"
C       0.84278319      -0.73027012       0.77821384        6 
C      -0.71885093      -0.53900283       0.64024861        6 
C       1.82303182       0.41072393       0.56691609        6 
C      -1.19391491       0.86672499       0.29460061        6 
O       1.72040505       1.00031261      -0.63513427        8 
O       2.71484763       0.65367959       1.34840400        8 
O      -2.45323577       0.82563902      -0.20225814        8 
O      -0.58504505       1.89479364       0.44830272        8 
C      -3.04243839       2.09368306      -0.54003758        6 
C       2.59704239       2.11108857      -0.87651154        6 
C       1.11345008      -1.90337527      -0.26065051        6 
C       0.80068560      -1.38416797      -1.65727158        6 
C      -0.52426041      -1.23446178      -1.74585500        6 
C      -1.11830939      -1.64513079      -0.41062601        6 
C      -0.13818639      -2.77616291      -0.01880495        6 
C      -1.39277729      -0.82204546       2.01342091        6 
H      -3.09449868       2.73907543       0.33811708        1 
H       3.64079741       1.81440984      -0.76352065        1 
H      -1.08455505      -0.79464691      -2.55993183        1 
H      -4.04084820       1.86129130      -0.90463562        1 
H      -2.45711920       2.59041979      -1.31556550        1 
H       2.39297932       2.42314796      -1.89885897        1 
H       2.36947129       2.91977495      -0.18027264        1 
H      -2.18258642      -1.87059277      -0.40265540        1 
H       2.08869675      -2.36905429      -0.12393230        1 
H      -1.11850799      -1.80889041       2.38850281        1 
H      -1.07621555      -0.08348099       2.75469854        1 
H      -2.48011212      -0.77847674       1.92224877        1 
H      -0.19260563      -3.62177392      -0.70583605        1 
H      -0.23889176      -3.13349591       1.00776868        1 
H       1.54220479      -1.09164262      -2.38645367        1 
H       1.06538342      -1.09782225       1.77871204        1 
