32
Lattice="0.0 0.0 0.0 0.0 0.0 0.0 0.0 0.0 0.0" Properties=species:S:1:pos:R:3:Z:I:1 pbc="F F F"
C      -0.81011760      -0.38989272      -0.61676812        6 
C       0.76734020      -0.24637732      -0.65388363        6 
C      -1.77949848       0.56299440       0.06013459        6 
C       1.43532809       0.92438724       0.07381587        6 
O      -2.91095923       0.61425753      -0.70807500        8 
O      -1.68144846       1.15472398       1.09857264        8 
O       2.75227325       0.97545448      -0.28018022        8 
O       0.96909800       1.66820740       0.89077402        8 
C       3.53527845       1.98107792       0.38395217        6 
C      -3.99546769       1.38550233      -0.16608796        6 
C      -1.00058171      -1.80684175       0.09254778        6 
C      -0.52152102      -1.64506438       1.52711042        6 
C       0.80935208      -1.53071583       1.49211687        6 
C       1.23653731      -1.60485769       0.03484471        6 
C       0.18043630      -2.59050441      -0.50894948        6 
C       1.21270840      -0.20197320      -2.13908254        6 
H       3.14577055       2.97688001       0.16542798        1 
H      -3.69010972       2.42136404      -0.01034029        1 
H       1.46543210      -1.28537580       2.31629292        1 
H       4.54361971       1.86977790      -0.00937151        1 
H       3.52350307       1.82681151       1.46432382        1 
H      -4.79227087       1.32683727      -0.90483977        1 
H      -4.32656326       0.96757084       0.78689815        1 
H       2.28527716      -1.82270410      -0.15854038        1 
H      -2.00108519      -2.21272699      -0.05137586        1 
H       0.72388873      -0.98757638      -2.71560637        1 
H       0.93960984       0.75590616      -2.59068253        1 
H       2.29095303      -0.32449770      -2.22912041        1 
H       0.28444381      -3.58349777      -0.06885654        1 
H       0.15139984      -2.67646422      -1.59638393        1 
H      -1.16744850      -1.51048453       2.38312848        1 
H      -1.15755462      -0.48412953      -1.64376851        1 
