32
Lattice="0.0 0.0 0.0 0.0 0.0 0.0 0.0 0.0 0.0" Properties=species:S:1:pos:R:3:Z:I:1 pbc="F F F"
C      -0.70512987       0.62854353       0.80988320        6 
C       0.88174419       0.45717658       0.70481583        6 
C      -1.59969262      -0.57491768       0.56085562        6 
C       1.38760622      -0.92426891       0.26621124        6 
O      -2.61254179      -0.27871483      -0.29183302        8 
O      -1.49073181      -1.64995616       1.09087409        8 
O       1.97123083      -0.91232165      -0.95498426        8 
O       1.33148851      -1.91739450       0.94379406        8 
C       2.47332930      -2.17783167      -1.42079124        6 
C      -3.55282934      -1.33888974      -0.53996199        6 
C      -0.98847385       1.87738336      -0.09382030        6 
C      -0.69688835       1.47702973      -1.53227018        6 
C       0.62613149       1.33628691      -1.64590683        6 
C       1.24107852       1.63494795      -0.28424192        6 
C       0.26259838       2.73277393       0.20066269        6 
C       1.52225744       0.66977752       2.09629034        6 
H       3.24321329      -2.55708344      -0.74705849        1 
H      -4.02733466      -1.65588831       0.38998847        1 
H       1.17903909       0.98111128      -2.50213156        1 
H       2.88950511      -1.97880919      -2.40634835        1 
H       1.66455446      -2.90748450      -1.48411800        1 
H      -4.28859903      -0.91932074      -1.22304458        1 
H      -3.05185741      -2.19564885      -0.99366379        1 
H       2.30422655       1.87158741      -0.28290172        1 
H      -1.96172431       2.32704262       0.09275677        1 
H       1.21811212       1.62253332       2.53019834        1 
H       1.22105649      -0.13542897       2.76760384        1 
H       2.61366941       0.66129581       2.02312978        1 
H       0.30639849       3.62702851      -0.42199769        1 
H       0.37495878       3.01413122       1.24913429        1 
H      -1.45226487       1.25752852      -2.27295433        1 
H      -0.91906299       0.88888537       1.85216028        1 
