32
Lattice="0.0 0.0 0.0 0.0 0.0 0.0 0.0 0.0 0.0" Properties=species:S:1:pos:R:3:Z:I:1 pbc="F F F"
C      -0.76110473       0.89986055       0.42000027        6 
C       0.57786994       0.15724220       0.76132545        6 
C      -1.98163019       0.16306673      -0.08647698        6 
C       0.88984868      -1.03749697      -0.14783724        6 
O      -2.14865372      -1.00831211       0.55619786        8 
O      -2.83613516       0.66651870      -0.77762944        8 
O       2.21583186      -1.32648570      -0.08727463        8 
O       0.11456572      -1.72078321      -0.76558652        8 
C       2.64136539      -2.47052752      -0.84707208        6 
C      -3.31859420      -1.76527623       0.20691914        6 
C      -0.32973286       2.19918928      -0.31328143        6 
C       0.46918434       1.82896416      -1.55166025        6 
C       1.64603620       1.34035547      -1.14451525        6 
C       1.62528219       1.31370987       0.38219157        6 
C       0.81983477       2.60501085       0.64391179        6 
C       0.65860252      -0.29724684       2.22387417        6 
H       2.14330759      -3.37416191      -0.49157668        1 
H      -3.27740833      -2.05365774      -0.84463359        1 
H       2.42677574       0.91110330      -1.75740705        1 
H       3.71603567      -2.53970461      -0.69187442        1 
H       2.41353542      -2.33256343      -1.90549444        1 
H      -3.29187806      -2.64873364       0.84119069        1 
H      -4.22475763      -1.18529321       0.38977938        1 
H       2.58664705       1.19563000       0.87726678        1 
H      -1.14823103       2.90072233      -0.45684194        1 
H       0.54024252       0.55883086       2.89287496        1 
H      -0.13681866      -1.01362431       2.44174296        1 
H       1.62281808      -0.76478194       2.43161854        1 
H       1.35479436       3.49435229       0.30804235        1 
H       0.50176022       2.73977332       1.68130044        1 
H       0.09315539       1.88544329      -2.56435762        1 
H      -1.14328101       1.23821839       1.39377135        1 
