32
Lattice="0.0 0.0 0.0 0.0 0.0 0.0 0.0 0.0 0.0" Properties=species:S:1:pos:R:3:Z:I:1 pbc="F F F"
C      -0.63056807       0.42351922      -0.97812538        6 
C      -0.45518098      -1.06195212      -0.40187639        6 
C       0.54060597       1.36286965      -0.75824793        6 
C       0.76896139      -1.21041676       0.51250242        6 
O       0.28783222       2.33190949       0.14293154        8 
O       1.59410665       1.26883617      -1.34311121        8 
O       1.87913952      -1.47491068      -0.19947453        8 
O       0.77443039      -1.11707092       1.71711484        8 
C       3.11110560      -1.54016611       0.53683784        6 
C       1.36901776       3.24342984       0.40938900        6 
C      -2.03044448       0.85610499      -0.42146251        6 
C      -1.95503104       0.95772606       1.09550944        6 
C      -1.83119272      -0.28177677       1.57540414        6 
C      -1.81510392      -1.23463255       0.38516850        6 
C      -2.79032061      -0.48357106      -0.55529330        6 
C      -0.34362984      -2.08225460      -1.55352155        6 
H       3.29990689      -0.59152412       1.04168929        1 
H       1.64874499       3.78020080      -0.49840751        1 
H      -1.65830863      -0.57733706       2.59863278        1 
H       3.88025402      -1.73457835      -0.20700178        1 
H       3.07502075      -2.34133854       1.27688228        1 
H       0.98887419       3.93081198       1.16175400        1 
H       2.23716919       2.70163613       0.78729494        1 
H      -2.03502536      -2.27966572       0.60447649        1 
H      -2.44556614       1.71851545      -0.94272952        1 
H      -1.23885741      -2.06025756      -2.17560169        1 
H       0.52000394      -1.86697200      -2.18212079        1 
H      -0.23171014      -3.09610139      -1.15965758        1 
H      -3.79881244      -0.43184700      -0.14397572        1 
H      -2.83470090      -0.87079644      -1.57548827        1 
H      -1.90289994       1.88451848       1.64700004        1 
H      -0.68980290       0.32759199      -2.06556514        1 
