32
Lattice="0.0 0.0 0.0 0.0 0.0 0.0 0.0 0.0 0.0" Properties=species:S:1:pos:R:3:Z:I:1 pbc="F F F"
C      -0.53499997      -0.98720495       0.64535983        6 
C      -0.72454644       0.58177248       0.77869931        6 
C       0.78057745      -1.61679354       0.23505302        6 
C       0.45707077       1.45584737       0.32815476        6 
O       1.83772921      -0.79753759       0.37534482        8 
O       0.88488219      -2.78255879      -0.06656386        8 
O       0.69952721       1.39799136      -0.99503096        8 
O       1.09201794       2.16542921       1.07112269        8 
C       1.83481104       2.14300444      -1.45977241        6 
C       3.13104672      -1.36661770       0.10249108        6 
C      -1.74696429      -1.45214636      -0.24106200        6 
C      -1.52931300      -0.89856706      -1.63770370        6 
C      -1.69947775       0.42490085      -1.57019209        6 
C      -2.02836981       0.77935526      -0.12492353        6 
C      -2.83866448      -0.48388243       0.26072685        6 
C      -1.00909577       0.96039481       2.24319813        6 
H       1.73000209       3.20171164      -1.21895032        1 
H       3.19451444      -1.67875000      -0.94109653        1 
H      -1.53862051       1.14616191      -2.35766584        1 
H       1.85767298       1.99365009      -2.53760042        1 
H       2.74844623       1.76075806      -1.00098893        1 
H       3.84403428      -0.57236105       0.31204054        1 
H       3.31294168      -2.22756011       0.74699438        1 
H      -2.49942918       1.74907915       0.03551730        1 
H      -1.93713082      -2.52044413      -0.16551953        1 
H      -1.83400281       0.37523959       2.64872727        1 
H      -0.12583497       0.78502215       2.85940393        1 
H      -1.26025305       2.01931653       2.32947139        1 
H      -3.75993568      -0.56943887      -0.31693243        1 
H      -3.06770557      -0.57699664       1.32301522        1 
H      -1.19771192      -1.47936535      -2.48778511        1 
H      -0.68721140      -1.40197897       1.64906323        1 
