32
Lattice="0.0 0.0 0.0 0.0 0.0 0.0 0.0 0.0 0.0" Properties=species:S:1:pos:R:3:Z:I:1 pbc="F F F"
C       0.67149235      -0.72666944      -0.81136183        6 
C       0.50708959       0.83887243      -0.55054332        6 
C      -0.35719089      -1.65113519      -0.19254986        6 
C      -0.66460121       1.16997691       0.38406072        6 
O      -1.60208457      -1.33997601      -0.61959832        8 
O      -0.12671245      -2.56964256       0.55320781        8 
O      -1.74379991       1.62109054      -0.28858303        8 
O      -0.65065682       1.08025956       1.58838240        8 
C      -2.90752090       1.90080802       0.50544357        6 
C      -2.67496774      -2.13661909      -0.08466356        6 
C       2.13032361      -1.02789530      -0.31710877        6 
C       2.14668762      -0.86318018       1.19512617        6 
C       2.00704886       0.43933692       1.45392028        6 
C       1.90558827       1.16836602       0.11993824        6 
C       2.84259664       0.27553527      -0.73332895        6 
C       0.33949313       1.59217334      -1.88573193        6 
H      -3.24671545       0.99674491       1.01428305        1 
H      -2.71039697      -2.04342252       1.00199081        1 
H       1.87412442       0.90541785       2.41817313        1 
H      -3.66094884       2.24937928      -0.19779983        1 
H      -2.69097303       2.66790199       1.25032047        1 
H      -3.58224118      -1.73974373      -0.53520470        1 
H      -2.54203028      -3.18641744      -0.35022877        1 
H       2.11015283       2.23913866       0.13856276        1 
H       2.52473260      -1.96571312      -0.70594457        1 
H       1.18210316       1.39620650      -2.54907724        1 
H      -0.57517306       1.28370862      -2.39130490        1 
H       0.28382387       2.67064172      -1.71932226        1 
H       3.87406191       0.31206074      -0.38165972        1 
H       2.81800247       0.47769130      -1.80563620        1 
H       2.14089736      -1.68168602       1.89925500        1 
H       0.59900424      -0.88550259      -1.89190265        1 
