32
Lattice="0.0 0.0 0.0 0.0 0.0 0.0 0.0 0.0 0.0" Properties=species:S:1:pos:R:3:Z:I:1 pbc="F F F"
C      -0.76068198       0.65645393       0.87784149        6 
C       0.79661481       0.50605690       0.62062703        6 
C      -1.61656232      -0.58657602       0.71372002        6 
C       1.18643867      -0.78934268      -0.08365670        6 
O      -2.26582601      -0.64633264      -0.46036500        8 
O      -1.79428379      -1.37798166       1.61200824        8 
O       2.51372736      -1.02599008       0.01918515        8 
O       0.45263218      -1.50096752      -0.72475250        8 
C       2.99577720      -2.19961041      -0.66113399        6 
C      -3.02419815      -1.84199410      -0.70323232        6 
C      -1.14221682       1.89491781      -0.01485735        6 
C      -0.90705550       1.54170653      -1.47578027        6 
C       0.41228850       1.46408491      -1.66804617        6 
C       1.08242730       1.74719114      -0.33514247        6 
C       0.09447161       2.78712239       0.24264429        6 
C       1.57362064       0.62725487       1.94731454        6 
H       2.50772736      -3.09312258      -0.26916707        1 
H      -3.78451912      -1.98168374       0.06656721        1 
H       0.92581868       1.13231215      -2.56064887        1 
H       4.06517373      -2.22897585      -0.46414340        1 
H       2.80258918      -2.12737255      -1.73257633        1 
H      -3.48569013      -1.69946306      -1.67841168        1 
H      -2.35666112      -2.70474004      -0.71940734        1 
H       2.13976138       2.00677723      -0.36388858        1 
H      -2.11998465       2.30953475       0.22752725        1 
H       1.29705311       1.54299077       2.47141185        1 
H       1.34230777      -0.21497513       2.60477552        1 
H       2.64923435       0.63866285       1.77339725        1 
H       0.07742161       3.70453503      -0.34705957        1 
H       0.25500413       3.03133703       1.29470065        1 
H      -1.68710438       1.29617465      -2.18052200        1 
H      -0.88845767       0.92777495       1.92637216        1 
