32
Lattice="0.0 0.0 0.0 0.0 0.0 0.0 0.0 0.0 0.0" Properties=species:S:1:pos:R:3:Z:I:1 pbc="F F F"
C      -0.18286866      -0.95764059       0.82659069        6 
C      -1.10632842       0.31779503       0.59228410        6 
C       1.33534541      -0.88045310       0.84810867        6 
C      -0.48694824       1.63617318       0.12401204        6 
O       1.91628770      -0.90421422      -0.36457689        8 
O       1.97389483      -0.97435985       1.87344681        8 
O       0.71308522       1.50666370      -0.45734918        8 
O      -1.04072102       2.70444243       0.24998545        8 
C       1.30793593       2.71106754      -0.97210320        6 
C       3.35137687      -0.89592828      -0.37605513        6 
C      -0.74408448      -1.98248255      -0.24354228        6 
C      -0.49172138      -1.42444817      -1.63640593        6 
C      -1.30970426      -0.38192632      -1.80760005        6 
C      -2.10657633      -0.21467906      -0.52727723        6 
C      -2.25550755      -1.69471440      -0.11083870        6 
C      -1.87489280       0.64307410       1.89204417        6 
H       0.65338597       3.17249360      -1.71293471        1 
H       3.74862810      -1.76821813       0.14541951        1 
H      -1.33026006       0.30512149      -2.64331378        1 
H       2.24284947       2.39513635      -1.42991183        1 
H       1.49270495       3.42144769      -0.16513601        1 
H       3.63243409      -0.91611122      -1.42729338        1 
H       3.73040867       0.00822836       0.10401391        1 
H      -3.00923291       0.39174363      -0.58650641        1 
H      -0.40921913      -3.00432691      -0.06669914        1 
H      -2.42049512      -0.23027203       2.25100409        1 
H      -1.18307255       0.95253173       2.67990737        1 
H      -2.58113042       1.45538630       1.72308821        1 
H      -2.85160170      -2.26128043      -0.82786027        1 
H      -2.65090391      -1.85039776       0.89431254        1 
H       0.28600097      -1.76383639      -2.30408319        1 
H      -0.42570152      -1.33440412       1.81916442        1 
