32
Lattice="0.0 0.0 0.0 0.0 0.0 0.0 0.0 0.0 0.0" Properties=species:S:1:pos:R:3:Z:I:1 pbc="F F F"
C       0.78928324      -0.65043994      -0.76604807        6 
C       0.40304512       0.87302396      -0.55213083        6 
C      -0.13114963      -1.77200905      -0.33447367        6 
C      -0.82774489       1.10132382       0.34003566        6 
O      -1.42055655      -1.39431709      -0.24641651        8 
O       0.23103276      -2.91761202      -0.20901366        8 
O      -1.87366097       1.59512524      -0.35801845        8 
O      -0.88800154       0.89976525       1.52822459        8 
C      -3.08757924       1.78389253       0.38514996        6 
C      -2.36479158      -2.41945777       0.11292412        6 
C       2.23535858      -0.77540519      -0.16954224        6 
C       2.12215748      -0.58704585       1.33299455        6 
C       1.81496302       0.69502173       1.55079463        6 
C       1.71825353       1.38516370       0.19433004        6 
C       2.81080032       0.59852266      -0.57110433        6 
C       0.22583502       1.57753378      -1.90993815        6 
H      -3.42122543       0.83630232       0.81145062        1 
H      -2.12037804      -2.82988142       1.09333742        1 
H       1.56260960       1.15720999       2.49296829        1 
H      -3.81338448       2.15825665      -0.33399154        1 
H      -2.93885003       2.50349858       1.19167923        1 
H      -3.33336351      -1.92490156       0.13621349        1 
H      -2.35940341      -3.22079286      -0.62738976        1 
H       1.79173378       2.47298899       0.20067181        1 
H       2.75433640      -1.66717459      -0.51362449        1 
H       1.11491281       1.45221224      -2.52871713        1 
H      -0.62682484       1.16593983      -2.45145079        1 
H       0.05074475       2.64713634      -1.77743000        1 
H       3.80394621       0.76669255      -0.15357440        1 
H       2.83585145       0.77667849      -1.64778381        1 
H       2.16542656      -1.38755127       2.05853947        1 
H       0.85891132      -0.80417836      -1.85058596        1 
