32
Lattice="0.0 0.0 0.0 0.0 0.0 0.0 0.0 0.0 0.0" Properties=species:S:1:pos:R:3:Z:I:1 pbc="F F F"
C       0.79749848      -0.79930395      -0.76299758        6 
C       0.51137994       0.76494992      -0.74094391        6 
C      -0.18800140      -1.84244967      -0.25421686        6 
C      -0.92807908       1.20545900      -0.45325093        6 
O      -1.43826985      -1.40165154      -0.07635278        8 
O       0.15386503      -2.97689384      -0.00737173        8 
O      -1.06074279       1.82752860       0.73770154        8 
O      -1.84870699       1.06282928      -1.21864554        8 
C      -2.38983601       2.26522941       1.06984118        6 
C      -2.40117844      -2.36343058       0.39156220        6 
C       2.09404324      -0.91401475       0.14604648        6 
C       1.61057056      -0.65263014       1.56870007        6 
C       1.30043059       0.64491880       1.64740395        6 
C       1.58990967       1.27244870       0.28908322        6 
C       2.80849012       0.41734552      -0.13785160        6 
C       0.78294867       1.34494329      -2.15560907        6 
H      -2.75243809       2.98494407       0.33426451        1 
H      -2.12060555      -2.73419689       1.37855040        1 
H       0.83785734       1.16337767       2.47401876        1 
H      -2.30647605       2.72769727       2.05113962        1 
H      -3.07147952       1.41388435       1.10169178        1 
H      -3.34521775      -1.82466717       0.43294186        1 
H      -2.46760634      -3.20181886      -0.30282498        1 
H       1.70406465       2.35547867       0.27767626        1 
H       2.64083482      -1.83918103      -0.01768596        1 
H       1.76223570       1.05443581      -2.53407913        1 
H       0.02287288       0.98953438      -2.85213498        1 
H       0.73788105       2.43784692      -2.13702501        1 
H       3.66578887       0.56772423       0.51961977        1 
H       3.12354886       0.54873225      -1.17296616        1 
H       1.44977788      -1.42064050       2.31303836        1 
H       1.03284484      -1.10016581      -1.78807517        1 
