32
Lattice="0.0 0.0 0.0 0.0 0.0 0.0 0.0 0.0 0.0" Properties=species:S:1:pos:R:3:Z:I:1 pbc="F F F"
C      -0.13522792      -0.92766533       0.61629024        6 
C      -0.69290294       0.55828124       0.65616268        6 
C       1.16682816      -1.22764636      -0.09286278        6 
C       0.02862404       1.55966980      -0.26193748        6 
O       1.98784211      -1.92320043       0.74129136        8 
O       1.47173102      -0.95206675      -1.22408158        8 
O       0.69067973       2.50817985       0.44825204        8 
O       0.06316279       1.52751281      -1.46366035        8 
C       1.42811644       3.46253376      -0.33643799        6 
C       3.24500270      -2.33781021       0.17846774        6 
C      -1.34652318      -1.76585919       0.03558405        6 
C      -1.59928132      -1.32872223      -1.39268240        6 
C      -2.10436888      -0.09261192      -1.34812991        6 
C      -2.18079378       0.32068110       0.11308048        6 
C      -2.51192481      -1.04944905       0.74980583        6 
C      -0.72080272       1.06794747       2.10803648        6 
H       2.15519074       2.95318585      -0.97042789        1 
H       3.81379597      -1.47341523      -0.16770119        1 
H      -2.30181976       0.55998136      -2.18491056        1 
H       1.92575925       4.10769596       0.38451552        1 
H       0.75160351       4.04203717      -0.96708294        1 
H       3.77076543      -2.84559834       0.98429469        1 
H       3.08293636      -3.01601039      -0.66127952        1 
H      -2.84042224       1.15686722       0.34558021        1 
H      -1.23044038      -2.83559282       0.20989379        1 
H      -1.29211699       0.38935368       2.74219016        1 
H       0.28702466       1.14710090       2.51797076        1 
H      -1.17987785       2.05655618       2.16767911        1 
H      -3.48366151      -1.42490420       0.42646193        1 
H      -2.45303015      -1.08045834       1.83927926        1 
H      -1.29612176      -1.87866207      -2.27226021        1 
H       0.01218928      -1.23891968       1.65064460        1 
