32
Lattice="0.0 0.0 0.0 0.0 0.0 0.0 0.0 0.0 0.0" Properties=species:S:1:pos:R:3:Z:I:1 pbc="F F F"
C      -0.77345587       0.56980586       0.61616178        6 
C       0.77252132       0.20905223       0.65771672        6 
C      -1.79460102      -0.27949709      -0.11659136        6 
C       1.24925785      -0.95761045      -0.20988187        6 
O      -2.69515096      -0.76838094       0.78379866        8 
O      -1.86596733      -0.50967187      -1.29334048        8 
O       2.38665297      -1.50171614       0.30140921        8 
O       0.77534099      -1.33398386      -1.24839979        8 
C       2.97682480      -2.55597162      -0.47845450        6 
C      -3.75004899      -1.57628635       0.23401480        6 
C      -0.76717264       2.03747584       0.01559717        6 
C      -0.26505933       1.95073192      -1.41513794        6 
C       1.04216350       1.67753572      -1.36511327        6 
C       1.42657246       1.55617900       0.09835356        6 
C       0.48207554       2.61234711       0.71145137        6 
C       1.18820399      -0.02981892       2.12693671        6 
H       2.29398715      -3.40395569      -0.55458866        1 
H      -3.33779792      -2.45380293      -0.26720638        1 
H       1.68739989       1.43247498      -2.19752054        1 
H       3.88073789      -2.84016358       0.05637218        1 
H       3.21735767      -2.20371835      -1.48277871        1 
H      -4.36314259      -1.87173523       1.08302127        1 
H      -4.33945836      -1.00193088      -0.48301161        1 
H       2.48756372       1.62275751       0.33658414        1 
H      -1.71273369       2.55791149       0.16830624        1 
H       0.83986805       0.78212058       2.76635873        1 
H       0.75420863      -0.95908117       2.50557388        1 
H       2.27064831      -0.10370104       2.22113163        1 
H       0.72062195       3.61955156       0.36695691        1 
H       0.43097445       2.60135022       1.80103573        1 
H      -0.89397442       1.97443534      -2.29290900        1 
H      -1.11566890       0.62467131       1.64803314        1 
