32
Lattice="0.0 0.0 0.0 0.0 0.0 0.0 0.0 0.0 0.0" Properties=species:S:1:pos:R:3:Z:I:1 pbc="F F F"
C      -0.80684936      -0.39463859      -0.64795811        6 
C       0.76700771      -0.29051107      -0.63527363        6 
C      -1.74447397       0.56956793       0.05538403        6 
C       1.41971146       0.97678198      -0.08342144        6 
O      -2.93886745       0.54111096      -0.60804599        8 
O      -1.56703860       1.23090150       1.04021104        8 
O       2.76822784       0.78991268      -0.02457734        8 
O       0.89504257       1.99252996       0.28073289        8 
C       3.52977417       1.89960599       0.48020172        6 
C      -3.99174394       1.33146515      -0.03273441        6 
C      -1.03265198      -1.80064783       0.09339837        6 
C      -0.61809564      -1.58386633       1.54444677        6 
C       0.71254405      -1.46034943       1.56468524        6 
C       1.20602652      -1.59898944       0.13353787        6 
C       0.17319444      -2.61039165      -0.41307505        6 
C       1.25620618      -0.34323641      -2.11558065        6 
H       3.39997718       2.77611562      -0.15719174        1 
H      -3.70209203       2.38258380       0.01087878        1 
H       1.33224317      -1.18767009       2.40834834        1 
H       4.56653553       1.56944567       0.46888549        1 
H       3.21636012       2.14945818       1.49513200        1 
H      -4.84865016       1.19720762      -0.69000339        1 
H      -4.22645320       0.98562528       0.97587148        1 
H       2.26098523      -1.82721444      -0.00005362        1 
H      -2.02808481      -2.20635869      -0.07928310        1 
H       0.80533680      -1.17685408      -2.65428764        1 
H       0.97742525       0.57519953      -2.64018358        1 
H       2.34080315      -0.44770872      -2.15753285        1 
H       0.25280228      -3.58154386       0.07807359        1 
H       0.19564131      -2.75113501      -1.49453574        1 
H      -1.30200731      -1.42447156       2.36631171        1 
H      -1.15564334      -0.48453055      -1.67482423        1 
