32
Lattice="0.0 0.0 0.0 0.0 0.0 0.0 0.0 0.0 0.0" Properties=species:S:1:pos:R:3:Z:I:1 pbc="F F F"
C       0.41815078      -0.84846194       0.57562588        6 
C      -0.99841634      -0.19525933       0.74765657        6 
C       1.64831109       0.02863649       0.61330498        6 
C      -1.23832912       1.20714375       0.17821445        6 
O       2.70284811      -0.60287643       0.04398758        8 
O       1.72667687       1.12279068       1.11244552        8 
O      -0.27459527       1.64786472      -0.64028067        8 
O      -2.28194143       1.79909055       0.34372085        8 
C      -0.53103441       2.88898651      -1.31656495        6 
C       3.95448582       0.10681965       0.08398564        6 
C       0.23418420      -1.93744179      -0.53519853        6 
C      -0.21677429      -1.27160235      -1.82232792        6 
C      -1.46843723      -0.84110695      -1.63674833        6 
C      -1.86033065      -1.17192924      -0.20247794        6 
C      -1.11630739      -2.51545307      -0.04123391        6 
C      -1.48601309      -0.23163018       2.20005423        6 
H      -1.40760344       2.79586788      -1.96073510        1 
H       4.25001381       0.30530925       1.11540845        1 
H      -2.06386045      -0.24268182      -2.31393725        1 
H       0.36083013       3.08518687      -1.90761620        1 
H      -0.69828773       3.68922185      -0.59507593        1 
H       4.67474182      -0.54783589      -0.40201895        1 
H       3.87198001       1.05329500      -0.45250767        1 
H      -2.92266204      -1.13504229       0.03134390        1 
H       1.07755144      -2.61988175      -0.61151068        1 
H      -1.50539902      -1.25837033       2.57244873        1 
H      -0.81876262       0.35153915       2.84022244        1 
H      -2.48929582       0.18808888       2.27726861        1 
H      -1.51343946      -3.28455820      -0.70533110        1 
H      -1.08408185      -2.89532200       0.98283865        1 
H       0.41571268      -1.10538702      -2.68403108        1 
H       0.56775084      -1.43163666       1.49667313        1 
