32
Lattice="0.0 0.0 0.0 0.0 0.0 0.0 0.0 0.0 0.0" Properties=species:S:1:pos:R:3:Z:I:1 pbc="F F F"
C      -0.55822788       0.54299013      -0.93549824        6 
C      -0.61026475      -0.93487373      -0.38213276        6 
C       0.50363690       1.59871251      -0.65874856        6 
C       0.62618852      -1.65647328       0.15483688        6 
O       1.27180135       1.39735884       0.41903491        8 
O       0.49975851       2.64633096      -1.26983991        8 
O       1.78692221      -1.07087167      -0.17247206        8 
O       0.57311467      -2.78678418       0.58757011        8 
C       2.97819893      -1.83093741       0.09422111        6 
C       2.12947464       2.48862045       0.79220429        6 
C      -1.87217179       1.16188424      -0.23031996        6 
C      -1.53134878       1.27312864       1.25175371        6 
C      -1.49215819       0.03114229       1.74636252        6 
C      -1.82829855      -0.92311819       0.60959255        6 
C      -2.82454764      -0.04576098      -0.18565533        6 
C      -0.94588720      -1.86080052      -1.60611855        6 
H       3.07115656      -2.03504579       1.16183592        1 
H       1.53986922       3.37577475       1.03134867        1 
H      -1.18090386      -0.27549964       2.73609108        1 
H       3.80016240      -1.20648410      -0.24920474        1 
H       2.95788918      -2.77688477      -0.44960012        1 
H       2.67202696       2.14087245       1.66868105        1 
H       2.81943349       2.72930732      -0.01786256        1 
H      -2.14206285      -1.92547355       0.89421815        1 
H      -2.21139819       2.06911660      -0.72508195        1 
H      -1.78028290      -1.46793419      -2.18429614        1 
H      -0.08494741      -1.93126937      -2.27675429        1 
H      -1.19561261      -2.86382330      -1.25902478        1 
H      -3.72672316       0.16994816       0.38831283        1 
H      -3.10708506      -0.43623375      -1.16249468        1 
H      -1.25491417       2.19049165       1.75408340        1 
H      -0.69670458       0.54504215      -2.01573593        1 
