32
Lattice="0.0 0.0 0.0 0.0 0.0 0.0 0.0 0.0 0.0" Properties=species:S:1:pos:R:3:Z:I:1 pbc="F F F"
C      -0.65304537       0.45239837       0.73920603        6 
C       0.91479645       0.56632665       0.58964781        6 
C      -1.35786133      -0.73499777       0.12385542        6 
C       1.56709332      -0.54305836      -0.24639597        6 
O      -2.65832566      -0.72988207       0.50509234        8 
O      -0.89502940      -1.57429664      -0.60739179        8 
O       1.75420636      -1.65811621       0.48984837        8 
O       1.89580709      -0.45658888      -1.40268756        8 
C       2.18532076      -2.82148061      -0.23655920        6 
C      -3.47890308      -1.78543182      -0.02735198        6 
C      -1.18092902       1.81281048       0.12187351        6 
C      -0.89616362       1.76157809      -1.36937820        6 
C       0.42839114       1.85067506      -1.52386256        6 
C       1.04890386       1.96621083      -0.13655554        6 
C      -0.06382619       2.77227746       0.57677943        6 
C       1.59208787       0.58892932       1.97627132        6 
H       1.43929020      -3.07887270      -0.98967946        1 
H      -3.11274930      -2.75829510       0.30492397        1 
H       0.99035141       1.74666198      -2.43894269        1 
H       2.27083933      -3.61202976       0.50641363        1 
H       3.14729874      -2.64218083      -0.71886803        1 
H      -4.47748863      -1.59992694       0.36244805        1 
H      -3.48041799      -1.75654807      -1.11799779        1 
H       2.06336042       2.36163573      -0.10129000        1 
H      -2.20286715       2.03808678       0.42049833        1 
H       1.21301445       1.40863888       2.58742088        1 
H       1.41654666      -0.34589686       2.50912986        1 
H       2.67299624       0.71627138       1.87273896        1 
H      -0.18431461       3.77062206       0.15413106        1 
H       0.04529986       2.84676291       1.66022354        1 
H      -1.63414640       1.56434893      -2.13587885        1 
H      -0.90978778       0.43826799       1.80203454        1 
