32
Lattice="0.0 0.0 0.0 0.0 0.0 0.0 0.0 0.0 0.0" Properties=species:S:1:pos:R:3:Z:I:1 pbc="F F F"
C       0.81749458      -0.71290473      -0.72560880        6 
C       0.36422050       0.80039304      -0.61066478        6 
C      -0.10349669      -1.77537428      -0.17080145        6 
C      -0.84608713       0.98316717       0.31051836        6 
O      -1.37467388      -1.57162606      -0.58621756        8 
O       0.24361091      -2.74155692       0.46082952        8 
O      -1.79574244       1.77253965      -0.23698699        8 
O      -0.95214578       0.52772070       1.42405741        8 
C      -2.96430219       1.99719205       0.57030831        6 
C      -2.35780928      -2.50698044      -0.10802247        6 
C       2.26452140      -0.72854222      -0.12862226        6 
C       2.16367475      -0.41271643       1.35456813        6 
C       1.81444929       0.87160407       1.46734049        6 
C       1.66740498       1.43552426       0.06064607        6 
C       2.77670190       0.62888118      -0.65889407        6 
C       0.10472961       1.40522762      -2.00089832        6 
H      -3.46046699       1.05066877       0.79130482        1 
H      -2.40935308      -2.47075035       0.98112292        1 
H       1.54510880       1.39700221       2.37232536        1 
H      -3.60940877       2.63857010      -0.02641340        1 
H      -2.69607192       2.48544852       1.50830607        1 
H      -3.30038827      -2.18669838      -0.54709791        1 
H      -2.11112872      -3.52079576      -0.42666528        1 
H       1.68882483       2.52123564      -0.03428680        1 
H       2.82572382      -1.62185686      -0.39659116        1 
H       0.97217712       1.26348044      -2.64665066        1 
H      -0.75471987       0.92774702      -2.47568782        1 
H      -0.10142982       2.47430366      -1.93460828        1 
H       3.77009503       0.87392185      -0.28198712        1 
H       2.76899270       0.71436525      -1.74716870        1 
H       2.23304458      -1.14785716       2.14336423        1 
H       0.87639907      -0.94722569      -1.79509800        1 
