32
Lattice="0.0 0.0 0.0 0.0 0.0 0.0 0.0 0.0 0.0" Properties=species:S:1:pos:R:3:Z:I:1 pbc="F F F"
C      -0.10103456      -0.91701558       0.63109893        6 
C      -0.89698521       0.45069724       0.66461562        6 
C       1.22752528      -1.01429657      -0.09243997        6 
C      -0.29494971       1.67239534      -0.02075295        6 
O       2.18794315      -1.45212813       0.75880472        8 
O       1.44049231      -0.78513141      -1.25653814        8 
O       1.04792913       1.66963718      -0.01518871        8 
O      -0.95125516       2.62875486      -0.36247012        8 
C       1.69303513       2.81438989      -0.60007558        6 
C       3.49968023      -1.61076649       0.19139218        6 
C      -1.15420258      -1.88277993      -0.06614569        6 
C      -1.35074198      -1.39066509      -1.49366150        6 
C      -2.02945482      -0.24054440      -1.43279207        6 
C      -2.28585124       0.05916803       0.03316586        6 
C      -2.46147575      -1.37656468       0.57719823        6 
C      -1.06500282       0.91488364       2.13568803        6 
H       1.38844994       2.92513627      -1.64141126        1 
H       3.86229488      -0.65804306      -0.19805335        1 
H      -2.25272390       0.43723637      -2.24510423        1 
H       2.75916053       2.60904481      -0.53594992        1 
H       1.43783631       3.72063970      -0.04884457        1 
H       4.13027112      -1.95649693       1.00776622        1 
H       3.48270077      -2.34318967      -0.61753844        1 
H      -3.06521040       0.78693845       0.24941310        1 
H      -0.90700123      -2.93740581       0.05459071        1 
H      -1.54712824       0.14127705       2.73474698        1 
H      -0.09235465       1.13189090       2.58411173        1 
H      -1.67850634       1.81696988       2.17693240        1 
H      -3.34415439      -1.86718647       0.16426675        1 
H      -2.47843380      -1.45452045       1.66664533        1 
H      -0.90640321      -1.84339651      -2.36811689        1 
H       0.06458049      -1.25370930       1.65351304        1 
