32
Lattice="0.0 0.0 0.0 0.0 0.0 0.0 0.0 0.0 0.0" Properties=species:S:1:pos:R:3:Z:I:1 pbc="F F F"
C      -0.21127034       0.91262514       0.73470453        6 
C       0.67416342      -0.37471434       0.62702073        6 
C      -1.67919729       0.69365618       0.41162699        6 
C      -0.01460806      -1.54504915      -0.04813039        6 
O      -2.20377927       1.69120010      -0.31953032        8 
O      -2.31784059      -0.24913193       0.81328889        8 
O       0.04904322      -2.64630185       0.73024731        8 
O      -0.50722909      -1.53408255      -1.14829600        8 
C      -0.59997624      -3.81962265       0.20560683        6 
C      -3.59627926       1.55408769      -0.66724746        6 
C       0.58450385       1.91734959      -0.13729067        6 
C       1.80284197       2.41053411       0.67092281        6 
C       2.69421420       1.13657670       0.65554412        6 
C       1.86677984       0.17322616      -0.24114820        6 
O       1.19115620       1.08144093      -1.12961434        8 
H      -0.22224290       1.24476991       1.77804141        1 
H       1.01787950      -0.70474876       1.60530932        1 
H      -0.13828544      -4.12588371      -0.73456099        1 
H      -3.74727534       0.64628998      -1.25232856        1 
H       2.28702589       3.23829597       0.15047647        1 
H       1.53895315       2.74818642       1.67551136        1 
H       3.66270582       1.33235050       0.19197179        1 
H       2.87607469       0.72200678       1.64915927        1 
H      -0.46898561      -4.58727584       0.96516080        1 
H      -1.65915492      -3.61834439       0.03953209        1 
H      -3.83388847       2.43639452      -1.25710570        1 
H      -4.21172314       1.51281341       0.23248542        1 
H      -0.01839620       2.68276367      -0.61489474        1 
C       2.67033863      -0.84901739      -1.01382967        6 
H       3.45261210      -0.34780591      -1.58755866        1 
H       3.14459455      -1.55560471      -0.32700036        1 
H       2.03372819      -1.40147342      -1.70510278        1 
