32
Lattice="0.0 0.0 0.0 0.0 0.0 0.0 0.0 0.0 0.0" Properties=species:S:1:pos:R:3:Z:I:1 pbc="F F F"
C       0.10684560       0.95062539       0.43971803        6 
C       0.60470690      -0.53258341       0.65478071        6 
C      -1.24153806       1.08297170      -0.23285007        6 
C      -0.35044394      -1.55763294       0.05971281        6 
O      -2.14254111       1.64316450       0.60503568        8 
O      -1.49561662       0.77124826      -1.36963227        8 
O      -1.49927336      -1.55260425       0.78248369        8 
O      -0.17830298      -2.27201502      -0.89075738        8 
C      -2.56342007      -2.37857495       0.27402629        6 
C      -3.47238202       1.80461016       0.07891423        6 
C       1.27107522       1.52168834      -0.42927105        6 
C       2.43341375       1.87528254       0.51493779        6 
C       2.90350711       0.45046206       0.91796715        6 
C       2.02253036      -0.46330830       0.00772030        6 
O       1.77004914       0.38449508      -1.13100960        8 
H       0.04335684       1.46290581       1.39817320        1 
H       0.65826458      -0.74466741       1.72433255        1 
H      -2.26554062      -3.42806291       0.26760497        1 
H      -3.45998536       2.43817444      -0.80907148        1 
H       3.20975629       2.40919294      -0.03535578        1 
H       2.12492670       2.49384488       1.36021904        1 
H       3.95816839       0.29537198       0.68702008        1 
H       2.76038054       0.23328022       1.97904304        1 
H      -3.39940815      -2.22318323       0.95285837        1 
H      -2.82394015      -2.07080641      -0.73993153        1 
H      -4.04549341       2.27162663       0.87679966        1 
H      -3.89817192       0.83391977      -0.18077339        1 
H       0.97238384       2.28902924      -1.13998976        1 
C       2.69548778      -1.75489853      -0.40482180        6 
H       3.67850101      -1.53030056      -0.82508979        1 
H       2.83871094      -2.39936216       0.46794879        1 
H       2.10294258      -2.29190491      -1.14072081        1 
