32
Lattice="0.0 0.0 0.0 0.0 0.0 0.0 0.0 0.0 0.0" Properties=species:S:1:pos:R:3:Z:I:1 pbc="F F F"
C       0.27354326       1.14843194       0.57476379        6 
C       0.53038117      -0.39265561       0.82249152        6 
C      -1.16944484       1.57453271       0.39627147        6 
C      -0.72867066      -1.22862624       0.59539477        6 
O      -1.61256633       1.32413428      -0.85344569        8 
O      -1.85021613       2.05152636       1.26807822        8 
O      -0.58578779      -2.25291265      -0.25858963        8 
O      -1.77012553      -0.98906216       1.15800982        8 
C      -1.76618819      -3.04288362      -0.50015692        6 
C      -3.01359100       1.56273937      -1.08094782        6 
C       1.23273146       1.42354563      -0.62443615        6 
C       2.63194059       1.67470534      -0.04369174        6 
C       2.94330596       0.25835004       0.51079712        6 
C       1.78166516      -0.60582660      -0.09093526        6 
O       1.39224198       0.14878990      -1.25693387        8 
H       0.60698966       1.69735459       1.45505749        1 
H       0.77542050      -0.54881765       1.87594615        1 
H      -2.55716321      -2.41937685      -0.91851042        1 
H      -3.60882979       0.93431690      -0.41652665        1 
H       3.32265189       1.94855435      -0.84288743        1 
H       2.65010629       2.45885675       0.71593899        1 
H       3.90731707      -0.11143265       0.16014539        1 
H       2.95271932       0.22125036       1.60256228        1 
H      -1.46008630      -3.80463422      -1.21385529        1 
H      -2.11811590      -3.49884294       0.42595419        1 
H      -3.18695341       1.30021151      -2.12242938        1 
H      -3.25961166       2.61077695      -0.90325800        1 
H       0.86467888       2.14665714      -1.34763232        1 
C       2.22751815      -2.00454914      -0.46822355        6 
H       3.16432663      -1.94011704      -1.02646368        1 
H       2.40703731      -2.60113244       0.43077431        1 
H       1.48519339      -2.51089361      -1.07648588        1 
