32
Lattice="0.0 0.0 0.0 0.0 0.0 0.0 0.0 0.0 0.0" Properties=species:S:1:pos:R:3:Z:I:1 pbc="F F F"
C       0.25617742       0.99935744       0.69398040        6 
C       0.48746853      -0.55614685       0.56833743        6 
C      -0.87763046       1.61779207      -0.12459102        6 
C      -0.71325404      -1.36849572       0.12122877        6 
O      -2.04623702       0.97241336       0.05435927        8 
O      -0.76833737       2.60019974      -0.81406737        8 
O      -1.53064234      -1.56769870       1.18011011        8 
O      -0.89983113      -1.87392315      -0.95734971        8 
C      -2.75216750      -2.27122876       0.90599204        6 
C      -3.17345636       1.48181201      -0.68462396        6 
C       1.60688462       1.51107568       0.14593307        6 
C       2.75987848       1.13153841       1.10145295        6 
C       2.96553457      -0.36727113       0.74590861        6 
C       1.81674017      -0.61075876      -0.26949957        6 
O       1.80038974       0.64409091      -0.97969846        8 
H       0.07788184       1.27607939       1.73612798        1 
H       0.68803690      -0.92908004       1.57464490        1 
H      -2.54466527      -3.28071397       0.54702110        1 
H      -3.36548233       2.52181473      -0.41815969        1 
H       3.64913231       1.72263641       0.87969068        1 
H       2.50139103       1.29694247       2.15009017        1 
H       3.92270699      -0.52725464       0.24636407        1 
H       2.91770275      -1.03476443       1.60865465        1 
H      -3.28869191      -2.30370067       1.85173497        1 
H      -3.33451718      -1.73757809       0.15291468        1 
H      -4.01325586       0.85175900      -0.40009481        1 
H      -2.98545699       1.41016706      -1.75650181        1 
H       1.57817274       2.54346139      -0.18800582        1 
C       2.03553765      -1.76621803      -1.21959968        6 
H       3.01060943      -1.65567042      -1.69991359        1 
H       2.02620735      -2.71332829      -0.67329700        1 
H       1.25954622      -1.80488031      -1.98053695        1 
