32
Lattice="0.0 0.0 0.0 0.0 0.0 0.0 0.0 0.0 0.0" Properties=species:S:1:pos:R:3:Z:I:1 pbc="F F F"
C      -0.08875032       0.97595246       0.69159041        6 
C       0.77067312      -0.32618111       0.83264149        6 
C      -1.57897981       0.74147015       0.52483677        6 
C       0.07280156      -1.63965511       0.53479826        6 
O      -2.13518038       1.56902115      -0.37857745        8 
O      -2.21134170      -0.05649931       1.17370162        8 
O      -0.59626232      -1.61420032      -0.63251517        8 
O       0.16093152      -2.61791801       1.23644305        8 
C      -1.34982505      -2.79512069      -0.95666942        6 
C      -3.55668402       1.42732178      -0.56827368        6 
C       0.66580712       1.73237434      -0.43596838        6 
C       1.93397527       2.36871862       0.16723693        6 
C       2.80581952       1.10327675       0.40786715        6 
C       1.91707850      -0.02070859      -0.19821574        6 
O       1.20500701       0.67568937      -1.23787179        8 
H      -0.02220894       1.53960238       1.62814743        1 
H       1.17033230      -0.43637070       1.83866935        1 
H      -2.13502254      -2.94869925      -0.21466005        1 
H      -3.79131630       0.41859578      -0.91068006        1 
H       2.39784961       3.03687266      -0.55975027        1 
H       1.73192893       2.94125460       1.07529260        1 
H       3.75172400       1.15932260      -0.13304946        1 
H       3.03124983       0.92579318       1.46126082        1 
H      -1.77947628      -2.60322537      -1.93756186        1 
H      -0.70100621      -3.67152888      -0.98568973        1 
H      -3.82192876       2.16162841      -1.32538421        1 
H      -4.08810027       1.62299852       0.36408169        1 
H       0.04356264       2.38037849      -1.04482965        1 
C       2.66390118      -1.21231694      -0.75406485        6 
H       3.42227723      -0.87735787      -1.46521891        1 
H       3.15974097      -1.75909862       0.05177395        1 
H       1.98650697      -1.89432321      -1.27072243        1 
