32
Lattice="0.0 0.0 0.0 0.0 0.0 0.0 0.0 0.0 0.0" Properties=species:S:1:pos:R:3:Z:I:1 pbc="F F F"
C       0.05713816       0.68143376      -0.89757243        6 
C      -0.44575996      -0.72697841      -0.45127259        6 
C       1.20031590       1.26478416      -0.04511322        6 
C       0.52496378      -1.83813372      -0.09534254        6 
O       1.00583438       2.57673342       0.21103986        8 
O       2.21096695       0.69209146       0.27381670        8 
O       1.64656791      -1.74347516      -0.82602056        8 
O       0.23904620      -2.81587681       0.55547423        8 
C       2.60162992      -2.80673947      -0.67327417        6 
C       2.03683481       3.22873824       0.97296553        6 
C      -1.24636748       1.46931264      -0.59787518        6 
C      -2.46912467       0.91718613      -1.37376691        6 
C      -2.88655867      -0.29377537      -0.48716003        6 
C      -1.67793424      -0.37633074       0.47190868        6 
O      -1.47721170       1.02946791       0.75189623        8 
H       0.38056508       0.69326156      -1.94026352        1 
H      -0.86664092      -1.17113516      -1.36303800        1 
H       2.15894335      -3.76521471      -0.95012571        1 
H       2.12561164       2.76914413       1.95847164        1 
H      -3.25740068       1.66874201      -1.42974198        1 
H      -2.21185310       0.63147522      -2.39692641        1 
H      -3.78936636      -0.07076608       0.08503003        1 
H      -3.05243940      -1.21542337      -1.04929624        1 
H       3.42309567      -2.55239965      -1.33900257        1 
H       2.95038940      -2.85359181       0.35921894        1 
H       1.71733673       4.26472376       1.06252602        1 
H       2.99624504       3.16241228       0.45784571        1 
H      -1.13561854       2.54716734      -0.61800480        1 
C      -1.88224483      -1.13628890       1.76040625        6 
H      -2.73137222      -0.70129051       2.29312567        1 
H      -2.07929397      -2.18954870       1.56278070        1 
H      -0.99818904      -1.07462907       2.39608659        1 
