32
Lattice="0.0 0.0 0.0 0.0 0.0 0.0 0.0 0.0 0.0" Properties=species:S:1:pos:R:3:Z:I:1 pbc="F F F"
C      -0.19812245       1.16994118       0.56813599        6 
C       0.48398462      -0.23714138       0.66296502        6 
C      -1.54471845       1.22143173      -0.14019969        6 
C      -0.30614391      -1.42270830       0.15044738        6 
O      -2.53408652       0.91257481       0.72817320        8 
O      -1.72671240       1.51101100      -1.29289726        8 
O       0.23784279      -2.56662429       0.63084300        8 
O      -1.27991807      -1.40788117      -0.55825061        8 
C      -0.36518271      -3.79274228       0.17877036        6 
C      -3.84283725       0.75919953       0.14927367        6 
C       0.87581489       1.96285312      -0.21652687        6 
C       2.08120824       2.25289137       0.70174309        6 
C       2.75601958       0.85194054       0.75682420        6 
C       1.81757511       0.01505664      -0.15589202        6 
O       1.39182355       0.98147233      -1.12267060        8 
H      -0.34975879       1.56821582       1.57263491        1 
H       0.73624837      -0.47113086       1.69740827        1 
H      -0.27937955      -3.88217394      -0.90557777        1 
H      -4.15765031       1.68142601      -0.34104525        1 
H       2.73795657       2.99074384       0.23890707        1 
H       1.78316860       2.63280847       1.68111274        1 
H       3.75832629       0.87611845       0.32537668        1 
H       2.83318280       0.44144103       1.76552281        1 
H       0.18997720      -4.58750182       0.67226813        1 
H      -1.41867547      -3.82776590       0.45954051        1 
H      -4.50367830       0.52247846       0.98071232        1 
H      -3.82898326      -0.05463203      -0.57724878        1 
H       0.48299618       2.80547270      -0.77864217        1 
C       2.45619200      -1.16885328      -0.84653526        6 
H       3.34160513      -0.83351490      -1.39053067        1 
H       2.75169164      -1.92932542      -0.12202938        1 
H       1.76664415      -1.61906117      -1.56372957        1 
