32
Lattice="0.0 0.0 0.0 0.0 0.0 0.0 0.0 0.0 0.0" Properties=species:S:1:pos:R:3:Z:I:1 pbc="F F F"
C       0.45362801       1.10807001       0.71625259        6 
C       0.49823225      -0.45760757       0.78382018        6 
C      -0.80650031       1.76165653       0.18153776        6 
C      -0.89471457      -1.06795348       0.83034948        6 
O      -1.44587122       1.00611053      -0.72903074        8 
O      -1.15334354       2.87687168       0.48860604        8 
O      -1.12915767      -2.03203090      -0.07094582        8 
O      -1.70274224      -0.72940237       1.66364187        8 
C      -2.44523630      -2.61529001      -0.03801279        6 
C      -2.64417215       1.56381631      -1.29578195        6 
C       1.62288332       1.37491529      -0.27733405        6 
C       2.96536049       1.04591987       0.40872829        6 
C       2.95507705      -0.50663283       0.34508525        6 
C       1.57627173      -0.79581332      -0.31550013        6 
O       1.46524252       0.31977999      -1.22734149        8 
H       0.63827439       1.56902168       1.68464087        1 
H       0.90559815      -0.73212806       1.76096201        1 
H      -3.19971699      -1.85063003      -0.22771643        1 
H      -3.39090035       1.72087142      -0.51582479        1 
H       3.79544225       1.46439485      -0.16203721        1 
H       3.02137979       1.44105320       1.42495496        1 
H       3.75038867      -0.87907889      -0.30273834        1 
H       3.06515011      -0.98413567       1.32090036        1 
H      -2.44854280      -3.36355751      -0.82769781        1 
H      -2.63678528      -3.07611345       0.93176703        1 
H      -2.99079089       0.82826292      -2.01859152        1 
H      -2.42803438       2.51276405      -1.78781696        1 
H       1.57298187       2.34019561      -0.77703237        1 
C       1.51057535      -2.10126331      -1.07616578        6 
H       2.37894314      -2.17412227      -1.73519918        1 
H       1.52577441      -2.94916961      -0.38730777        1 
H       0.60345366      -2.16303142      -1.67183047        1 
