32
Lattice="0.0 0.0 0.0 0.0 0.0 0.0 0.0 0.0 0.0" Properties=species:S:1:pos:R:3:Z:I:1 pbc="F F F"
C       0.24914390       0.90249084       0.86549559        6 
C       0.52000720      -0.61208457       0.62879732        6 
C      -0.99779328       1.52188705       0.25883083        6 
C      -0.64266157      -1.56227881       0.41348498        6 
O      -1.25225115       1.09009833      -0.98724700        8 
O      -1.64216037       2.38171519       0.81344440        8 
O      -1.82927616      -1.00967669       0.72879809        8 
O      -0.51167686      -2.73490279       0.15446914        8 
C      -2.97615884      -1.87768770       0.67733783        6 
C      -2.40930452       1.64923655      -1.62845346        6 
C       1.50489960       1.49121735       0.15223689        6 
C       2.79112118       1.08584769       0.91450498        6 
C       2.99524077      -0.37292807       0.40876711        6 
C       1.70512406      -0.59091677      -0.42113658        6 
O       1.56274209       0.70487966      -1.03765623        8 
H       0.22129584       1.15556164       1.92390152        1 
H       0.93279592      -1.01069914       1.56210181        1 
H      -2.84928663      -2.71973944       1.35917138        1 
H      -3.30998499       1.41653939      -1.05681007        1 
H       3.62339618       1.72973328       0.62774029        1 
H       2.67016005       1.15831291       1.99771445        1 
H       3.86337754      -0.44265331      -0.24922292        1 
H       3.11184992      -1.10527639       1.20975249        1 
H      -3.81803519      -1.25960167       0.98102304        1 
H      -3.12023654      -2.25440030      -0.33636797        1 
H      -2.44810057       1.18413124      -2.61121261        1 
H      -2.31388754       2.73208968      -1.72071779        1 
H       1.42349573       2.54642951      -0.10125115        1 
C       1.75852725      -1.66947555      -1.47576447        6 
H       2.60297420      -1.47476259      -2.14089154        1 
H       1.87935734      -2.65229272      -1.01949712        1 
H       0.84222516      -1.68246271      -2.06721664        1 
