32
Lattice="0.0 0.0 0.0 0.0 0.0 0.0 0.0 0.0 0.0" Properties=species:S:1:pos:R:3:Z:I:1 pbc="F F F"
C      -0.40717885       1.07452505       0.54693962        6 
C       0.53858521      -0.17142613       0.65130506        6 
C      -1.72854127       0.87076997      -0.18156950        6 
C      -0.04344408      -1.50017442       0.20582033        6 
O      -2.71399377       0.61183602       0.70675974        8 
O      -1.90131287       0.96739016      -1.36811993        8 
O       0.83249453      -2.49769431       0.46395801        8 
O      -1.14709247      -1.70057812      -0.23426836        8 
C       0.40029360      -3.82567708       0.11357110        6 
C      -3.98754706       0.26433086       0.13547628        6 
C       0.49741214       2.06096741      -0.23397755        6 
C       1.61603293       2.58127061       0.69364785        6 
C       2.55246860       1.34098163       0.74968635        6 
C       1.80238443       0.33347457      -0.16358896        6 
O       1.20023152       1.20005881      -1.13499396        8 
H      -0.64326663       1.44111491       1.54634534        1 
H       0.83206819      -0.33297005       1.69030804        1 
H       0.19937648      -3.89133589      -0.95681551        1 
H      -4.36144485       1.07286141      -0.49450370        1 
H       2.11691202       3.43815483       0.24083469        1 
H       1.23961851       2.88660759       1.67235535        1 
H       3.53023263       1.56239936       0.31816838        1 
H       2.70962604       0.95717803       1.75951489        1 
H       1.22416296      -4.48017096       0.38939552        1 
H      -0.50288557      -4.09072118       0.66519601        1 
H      -4.65158051       0.09964631       0.98165688        1 
H      -3.88702797      -0.64485146      -0.45922251        1 
H      -0.04711192       2.81153123      -0.80055711        1 
C       2.67807168      -0.68715661      -0.85496406        6 
H       3.45280905      -0.16294022      -1.41881626        1 
H       3.15243898      -1.34882299      -0.12909478        1 
H       2.10124934      -1.29787292      -1.55131344        1 
