32
Lattice="0.0 0.0 0.0 0.0 0.0 0.0 0.0 0.0 0.0" Properties=species:S:1:pos:R:3:Z:I:1 pbc="F F F"
C      -0.15970945       0.77994536      -0.85127662        6 
C      -0.49937890      -0.73126720      -0.53116912        6 
C       1.18785260       1.24136561      -0.30372921        6 
C       0.67456027      -1.50215775       0.04357457        6 
O       1.09008538       2.31085757       0.50056179        8 
O       2.24110740       0.72677080      -0.59757131        8 
O       1.36160756      -2.09284003      -0.95352193        8 
O       0.94789038      -1.62951462       1.21184264        8 
C       2.59515620      -2.73014202      -0.57547614        6 
C       2.32521770       2.79222533       1.06555358        6 
C      -1.38749789       1.47586713      -0.21975562        6 
C      -2.64978693       1.16499140      -1.05555358        6 
C      -2.95712374      -0.28839435      -0.60285936        6 
C      -1.77728826      -0.57777276       0.36478181        6 
O      -1.58384337       0.71402774       0.97696849        8 
H      -0.10040728       0.92817950      -1.93184065        1 
H      -0.75476809      -1.23354414      -1.46428125        1 
H       2.41451840      -3.50423110       0.17155848        1 
H       2.77874677       2.01811945       1.68559540        1 
H      -3.45868318       1.84681965      -0.78963143        1 
H      -2.47261475       1.25764411      -2.12963963        1 
H      -3.89566669      -0.33973346      -0.04843347        1 
H      -3.01085560      -1.00330075      -1.42611500        1 
H       2.99012212      -3.16321300      -1.49177009        1 
H       3.28392525      -1.98490805      -0.17568311        1 
H       2.04831834       3.65394700       1.66835077        1 
H       3.02041928       3.07810754       0.27515160        1 
H      -1.23372653       2.52027992       0.03106636        1 
C      -2.05388795      -1.64022816       1.40491185        6 
H      -2.98140598      -1.40163232       1.93052658        1 
H      -2.17528167      -2.61489152       0.92317264        1 
H      -1.24021007      -1.70764209       2.12407907        1 
