32
Lattice="0.0 0.0 0.0 0.0 0.0 0.0 0.0 0.0 0.0" Properties=species:S:1:pos:R:3:Z:I:1 pbc="F F F"
C      -0.49394469       1.01895671       0.56850479        6 
C       0.56196762      -0.13315333       0.65109028        6 
C      -1.77066055       0.71448678      -0.20558658        6 
C       0.07584533      -1.52052548       0.27496937        6 
O      -2.80013627       0.52576176       0.65145775        8 
O      -1.88099212       0.67540992      -1.40252576        8 
O       1.05392986      -2.42868214       0.49152748        8 
O      -1.02915976      -1.82697491      -0.09498463        8 
C       0.72685492      -3.79618867       0.18061037        6 
C      -4.03687217       0.10625072       0.04791558        6 
C       0.33194123       2.09609404      -0.18419989        6 
C       1.42933035       2.65905518       0.74746325        6 
C       2.47001338       1.50297760       0.71284777        6 
C       1.75889536       0.46731976      -0.19930008        6 
O       1.07265570       1.31801857      -1.12690299        8 
H      -0.78170533       1.34304966       1.56823483        1 
H       0.89973575      -0.24332970       1.68426323        1 
H       0.45737840      -3.89314317      -0.87219666        1 
H      -4.40152772       0.86189207      -0.64986095        1 
H       1.84315749       3.58075479       0.33601000        1 
H       1.05449836       2.87621041       1.75010769        1 
H       3.40038172       1.82137039       0.23936976        1 
H       2.71354283       1.10253036       1.69893390        1 
H       1.62739537      -4.36578344       0.39930319        1 
H      -0.10525521      -4.13963053       0.79695472        1 
H      -4.73495503      -0.02139830       0.87281600        1 
H      -3.88749987      -0.83581411      -0.48166476        1 
H      -0.26944229       2.83204228      -0.71187327        1 
C       2.67114818      -0.48229910      -0.94155108        6 
H       3.38909530       0.09837095      -1.52513729        1 
H       3.21264394      -1.12264434      -0.24472686        1 
H       2.10740882      -1.11769208      -1.62679338        1 
