32
Lattice="0.0 0.0 0.0 0.0 0.0 0.0 0.0 0.0 0.0" Properties=species:S:1:pos:R:3:Z:I:1 pbc="F F F"
C       0.14286416       1.00811805       0.81454133        6 
C       0.74259396      -0.45039070       0.81660071        6 
C      -1.35025823       1.05060398       0.53030415        6 
C      -0.26882719      -1.56748214       0.65393904        6 
O      -1.65296735       1.63432805      -0.63940360        8 
O      -2.17956210       0.63030243       1.30264836        8 
O      -0.94818005      -1.47897570      -0.50728689        8 
O      -0.45846158      -2.43064873       1.47482560        8 
C      -2.01276063      -2.43021416      -0.69055638        6 
C      -3.04745506       1.65518912      -0.99151193        6 
C       1.05200932       1.68918794      -0.23651676        6 
C       2.46168323       1.89184200       0.36192295        6 
C       3.02531494       0.44406818       0.29402660        6 
C       1.82781030      -0.33218309      -0.31559342        6 
O       1.25679169       0.64839999      -1.19993194        8 
H       0.25535996       1.44673961       1.80785998        1 
H       1.21952547      -0.65454854       1.77371218        1 
H      -2.78114817      -2.27743084       0.06910536        1 
H      -3.42700205       0.63548239      -1.07404963        1 
H       3.04177122       2.57472660      -0.26024071        1 
H       2.43165209       2.30028374       1.37445313        1 
H       3.88082556       0.38302016      -0.38108029        1 
H       3.33074931       0.04839430       1.26430549        1 
H      -2.40768506      -2.23347551      -1.68502180        1 
H      -1.63310432      -3.45051923      -0.62255096        1 
H      -3.09529801       2.15959896      -1.95389711        1 
H      -3.62646202       2.19565370      -0.24143630        1 
H       0.61362412       2.55576842      -0.72212773        1 
C       2.18249127      -1.59948286      -1.05971151        6 
H       2.93485456      -1.38227419      -1.82080599        1 
H       2.59385712      -2.34200106      -0.37058947        1 
H       1.30481615      -2.02131488      -1.54949865        1 
