32
Lattice="0.0 0.0 0.0 0.0 0.0 0.0 0.0 0.0 0.0" Properties=species:S:1:pos:R:3:Z:I:1 pbc="F F F"
C       0.14028709       1.15380283       0.42776269        6 
C       0.55036478      -0.29345206       0.84764801        6 
C      -1.29952511       1.59189264       0.23925941        6 
C      -0.39889717      -1.45785982       0.61078021        6 
O      -2.16908673       0.61214510      -0.04291805        8 
O      -1.62887799       2.74825749       0.37931779        8 
O      -0.75564471      -1.61719646      -0.67017507        8 
O      -0.69492501      -2.24066034       1.48599753        8 
C      -1.62357267      -2.72514325      -0.95165920        6 
C      -3.54802189       1.00406647      -0.18562800        6 
C       1.09123660       1.42251401      -0.79500632        6 
C       2.43876924       1.89634062      -0.22298268        6 
C       2.90622913       0.58549676       0.47367298        6 
C       1.85239498      -0.45189651      -0.02833417        6 
O       1.41592003       0.12029054      -1.27549193        8 
H       0.46202013       1.81855572       1.23091778        1 
H       0.77915427      -0.33074996       1.91162303        1 
H      -2.55086503      -2.63698704      -0.38277253        1 
H      -3.91765153       1.43834662       0.74423121        1 
H       3.10973005       2.17151871      -1.03842194        1 
H       2.34534114       2.74820199       0.45267398        1 
H       3.90593028       0.29164176       0.15061457        1 
H       2.91673587       0.65955396       1.56309153        1 
H      -1.82139661      -2.67203233      -2.02004275        1 
H      -1.13975172      -3.67006559      -0.69718525        1 
H      -4.08382991       0.08717595      -0.42098018        1 
H      -3.65523787       1.73121280      -0.99127496        1 
H       0.66209692       2.02414964      -1.59267603        1 
C       2.38220645      -1.85528001      -0.22130343        6 
H       3.26863110      -1.83083094      -0.85852804        1 
H       2.65928144      -2.28906486       0.74269403        1 
H       1.63858252      -2.49775659      -0.69282505        1 
