32
Lattice="0.0 0.0 0.0 0.0 0.0 0.0 0.0 0.0 0.0" Properties=species:S:1:pos:R:3:Z:I:1 pbc="F F F"
C      -0.54060961       0.95319452       0.62970051        6 
C       0.57496389      -0.13879166       0.62554271        6 
C      -1.78780918       0.66517675      -0.19878183        6 
C       0.17694251      -1.55179576       0.25465378        6 
O      -2.85653520       0.51119977       0.62323488        8 
O      -1.85364306       0.57415107      -1.39405637        8 
O       1.10982665      -2.41487360       0.73081400        8 
O      -0.79024304      -1.91256355      -0.36434653        8 
C       0.91339369      -3.80112945       0.39637721        6 
C      -4.08695045       0.14403734      -0.02748625        6 
C       0.24906956       2.11692201      -0.03869488        6 
C       1.38873067       2.59781491       0.89418319        6 
C       2.46671922       1.50261882       0.64514268        6 
C       1.69647772       0.52765342      -0.27880040        6 
O       0.94444347       1.44027798      -1.08755445        8 
H      -0.85242757       1.18726626       1.64658180        1 
H       0.97331959      -0.22806722       1.63741624        1 
H       0.94113697      -3.93919100      -0.68583396        1 
H      -4.40338905       0.92533425      -0.72068642        1 
H       1.74193230       3.58420360       0.59084263        1 
H       1.07042316       2.66193216       1.93718547        1 
H       3.32463514       1.90813239       0.10531270        1 
H       2.83084992       1.02755633       1.55779397        1 
H       1.73492539      -4.33336455       0.87101329        1 
H      -0.04565727      -4.15483285       0.77734977        1 
H      -4.81497336       0.02518985       0.77245200        1 
H      -3.95569198      -0.79093695      -0.57411962        1 
H      -0.37641880       2.89995040      -0.46124572        1 
C       2.52367902      -0.38961649      -1.14762129        6 
H       3.19856935       0.20371868      -1.76838106        1 
H       3.11529088      -1.07238103      -0.53505197        1 
H       1.88120193      -0.97707589      -1.80756895        1 
