32
Lattice="0.0 0.0 0.0 0.0 0.0 0.0 0.0 0.0 0.0" Properties=species:S:1:pos:R:3:Z:I:1 pbc="F F F"
C       0.16791341       1.02695539       0.81882871        6 
C       0.73207414      -0.44534030       0.81961112        6 
C      -1.32251142       1.11888676       0.53266782        6 
C      -0.29139926      -1.55271897       0.67427185        6 
O      -1.60230457       1.53549195      -0.71107181        8 
O      -2.16590595       0.88766116       1.36777855        8 
O      -1.04219948      -1.41911107      -0.43636093        8 
O      -0.42004528      -2.45837175       1.46152575        8 
C      -2.09009640      -2.38936023      -0.61540226        6 
C      -2.99526554       1.59392912      -1.05956729        6 
C       1.09067659       1.67967393      -0.23989254        6 
C       2.51033709       1.83946522       0.34928279        6 
C       3.03444116       0.37721014       0.26652619        6 
C       1.80657604      -0.36243648      -0.32717242        6 
O       1.25666179       0.63376771      -1.20498684        8 
H       0.29436648       1.46412698       1.81005747        1 
H       1.21905877      -0.65365423       1.77077419        1 
H      -2.82215303      -2.30115776       0.18902805        1 
H      -3.44667628       0.60451830      -0.97048554        1 
H       3.10444748       2.51190257      -0.27103647        1 
H       2.49862864       2.23986802       1.36534356        1 
H       3.87601468       0.29593223      -0.42369395        1 
H       3.34543392      -0.03063398       1.22996731        1 
H      -2.54223179      -2.15159469      -1.57594482        1 
H      -1.68008178      -3.40012535      -0.62268230        1 
H      -3.02063865       1.93361257      -2.09262691        1 
H      -3.52685459       2.29071732      -0.40977677        1 
H       0.67588126       2.55932104      -0.72347996        1 
C       2.11124950      -1.64067893      -1.07498324        6 
H       2.86319875      -1.44822432      -1.84305672        1 
H       2.50241733      -2.39851165      -0.39099687        1 
H       1.21571679      -2.03189830      -1.55901363        1 
