32
Lattice="0.0 0.0 0.0 0.0 0.0 0.0 0.0 0.0 0.0" Properties=species:S:1:pos:R:3:Z:I:1 pbc="F F F"
C      -0.23535507       0.79515088      -0.83266269        6 
C      -0.49901604      -0.74320832      -0.53713094        6 
C       1.12723532       1.32677073      -0.40891953        6 
C       0.69831055      -1.49382950       0.02976392        6 
O       1.09932055       1.89991713       0.80870638        8 
O       2.13071896       1.23085529      -1.07295698        8 
O       1.63909304      -1.59171880      -0.92865580        8 
O       0.80107360      -2.01273122       1.11378221        8 
C       2.87538122      -2.22653538      -0.56030432        6 
C       2.35670530       2.39110800       1.30712410        6 
C      -1.44508786       1.42875787      -0.09767266        6 
C      -2.71919327       1.18920819      -0.93260298        6 
C      -2.96278720      -0.32079002      -0.66251715        6 
C      -1.80533555      -0.66968432       0.32100759        6 
O      -1.63270417       0.57192838       1.03193835        8 
H      -0.27867354       0.96472431      -1.90891347        1 
H      -0.69945357      -1.23687732      -1.49026915        1 
H       2.70487114      -3.26990499      -0.28936421        1 
H       3.06981782       1.57150774       1.40906815        1 
H      -3.53913179       1.79824368      -0.54921834        1 
H      -2.58369034       1.42985279      -1.98913378        1 
H      -3.92185715      -0.48826812      -0.16990292        1 
H      -2.93850568      -0.93438759      -1.56537635        1 
H       3.50872677      -2.15350923      -1.44097014        1 
H       3.33334100      -1.70491697       0.28129487        1 
H       2.13164407       2.82459953       2.27866122        1 
H       2.76851434       3.14321668       0.63236844        1 
H      -1.28335897       2.44845686       0.23996004        1 
C      -2.11841892      -1.80200304       1.27539093        6 
H      -3.08122064      -1.61105624       1.75504854        1 
H      -2.18756913      -2.74784862       0.73080818        1 
H      -1.34735898      -1.90112839       2.03465223        1 
