32
Lattice="0.0 0.0 0.0 0.0 0.0 0.0 0.0 0.0 0.0" Properties=species:S:1:pos:R:3:Z:I:1 pbc="F F F"
C      -0.86805004      -0.40055361      -0.40628995        6 
C       0.61915779      -0.03050512      -0.64678104        6 
C      -1.89892544       0.67005853      -0.10957065        6 
C       1.17649943       1.19896749       0.05374932        6 
O      -3.12897514       0.13976633      -0.36308961        8 
O      -1.74630406       1.78302346       0.31421664        8 
O       2.09501158       1.79198493      -0.75800084        8 
O       0.91001230       1.60260142       1.15113943        8 
C       2.75353711       2.94575085      -0.20685825        6 
C      -4.25249204       0.98773343      -0.06428996        6 
C      -0.76133955      -1.58029383       0.62652977        6 
C      -0.54781613      -2.86583598      -0.19114338        6 
C       0.86404227      -2.57246596      -0.77715495        6 
C       1.29502908      -1.29955330       0.01650611        6 
O       0.52030478      -1.40027350       1.22486858        8 
H      -1.23181767      -0.83607716      -1.34009216        1 
H       0.85316269       0.04034571      -1.70746227        1 
H       3.32109802       2.67313775       0.68499692        1 
H      -4.25847953       1.25692294       0.99322556        1 
H      -0.52801774      -3.73094015       0.47380290        1 
H      -1.31673773      -3.02631667      -0.94865595        1 
H       1.55880950      -3.39065576      -0.58262786        1 
H       0.85373027      -2.39644714      -1.85512296        1 
H       3.42038200       3.30228672      -0.98917200        1 
H       2.02254352       3.71144179       0.05676171        1 
H      -5.13381200       0.40148910      -0.31583093        1 
H      -4.21389887       1.89853690      -0.66387909        1 
H      -1.53429184      -1.60329603       1.39049879        1 
C       2.77128035      -1.20457690       0.33014383        6 
H       3.10467543      -2.12499373       0.81422319        1 
H       3.34672498      -1.06412082      -0.58787278        1 
H       2.97790692      -0.37214948       1.00456600        1 
