32
Lattice="0.0 0.0 0.0 0.0 0.0 0.0 0.0 0.0 0.0" Properties=species:S:1:pos:R:3:Z:I:1 pbc="F F F"
C       0.11708784       0.96380748       0.42137547        6 
C       0.58464893      -0.52897177       0.64974065        6 
C      -1.24544596       1.17905045      -0.20530811        6 
C      -0.34165029      -1.61590236       0.11044937        6 
O      -2.16830755       1.46229019       0.73970681        8 
O      -1.47624939       1.20734032      -1.38901376        8 
O      -1.62768517      -1.33149314       0.40754703        8 
O      -0.01130034      -2.64334005      -0.42375102        8 
C      -2.61301773      -2.28280811      -0.03616190        6 
C      -3.50775414       1.66710160       0.26227217        6 
C       1.27416886       1.50689009      -0.46605663        6 
C       2.44759008       1.87378184       0.45627972        6 
C       2.88931056       0.45633814       0.91146575        6 
C       2.01477627      -0.47569260       0.01025413        6 
O       1.76286523       0.34840156      -1.14535779        8 
H       0.09416423       1.47425234       1.38419150        1 
H       0.64441755      -0.72791005       1.72376730        1 
H      -2.38756485      -3.27714163       0.35062032        1 
H      -3.54683599       2.51404839      -0.42462869        1 
H       3.23189452       2.36825159      -0.11896370        1 
H       2.15739115       2.53124562       1.27862341        1 
H       3.94663642       0.27990448       0.71087031        1 
H       2.72012936       0.27314469       1.97522155        1 
H      -3.56010033      -1.92228353       0.35944023        1 
H      -2.63900255      -2.31399233      -1.12636341        1 
H      -4.10717807       1.86419153       1.14852608        1 
H      -3.86713907       0.77454218      -0.25309518        1 
H       0.96863211       2.25450719      -1.19339852        1 
C       2.71254467      -1.75798929      -0.39110449        6 
H       3.70492585      -1.51025440      -0.77551986        1 
H       2.83199073      -2.41624072       0.47343965        1 
H       2.15508888      -2.29661294      -1.15165763        1 
