32
Lattice="0.0 0.0 0.0 0.0 0.0 0.0 0.0 0.0 0.0" Properties=species:S:1:pos:R:3:Z:I:1 pbc="F F F"
C      -0.77068092       0.61420901       0.72523797        6 
C       0.70622365       0.12829497       0.72738816        6 
C      -1.69651421      -0.26113769      -0.10115421        6 
C       0.81731964      -1.38894894       0.72139957        6 
O      -2.98204234       0.09574152       0.11509062        8 
O      -1.36764560      -1.13001035      -0.86766183        8 
O       1.78796504      -1.87516383      -0.06476850        8 
O       0.12452703      -2.07861940       1.43129125        8 
C       1.90691608      -3.31081203      -0.10007534        6 
C      -3.97167077      -0.63051999      -0.63821547        6 
C      -0.60364278       1.95843098      -0.03779354        6 
C       0.27220277       2.93986357       0.77695716        6 
C       1.69792938       2.39418832       0.47279814        6 
C       1.37373743       1.10169625      -0.32303097        6 
O       0.24889936       1.55729816      -1.11311985        8 
H      -1.19202865       0.74107833       1.72146964        1 
H       1.12181350       0.37531372       1.70984932        1 
H       0.97660013      -3.75293577      -0.45816701        1 
H      -3.83473614      -0.46216615      -1.70771849        1 
H       0.14581225       3.95978239       0.41164401        1 
H       0.02110315       2.93029400       1.83997465        1 
H       2.25378912       3.08128398      -0.16795056        1 
H       2.29344231       2.20321358       1.36796510        1 
H       2.72152925      -3.51450306      -0.79171310        1 
H       2.13588770      -3.70115359       0.89250695        1 
H      -4.93171031      -0.23952935      -0.30834697        1 
H      -3.89799246      -1.69860299      -0.42951711        1 
H      -1.53226052       2.36814559      -0.42869574        1 
C       2.47352798       0.61255355      -1.23568976        6 
H       2.79799226       1.43981894      -1.87155593        1 
H       3.32710531       0.25846057      -0.65501596        1 
H       2.12626684      -0.20584244      -1.86310604        1 
