32
Lattice="0.0 0.0 0.0 0.0 0.0 0.0 0.0 0.0 0.0" Properties=species:S:1:pos:R:3:Z:I:1 pbc="F F F"
C       0.09814800       1.00401392       0.46790544        6 
C       0.52181127      -0.50974740       0.61899906        6 
C      -1.20062515       1.26257831      -0.26807825        6 
C      -0.45058348      -1.49380234      -0.00701793        6 
O      -2.12577582       1.77650723       0.58260992        8 
O      -1.41981834       1.05033835      -1.43139091        8 
O      -1.29480077      -1.96467401       0.94879288        8 
O      -0.53480247      -1.80357458      -1.16489417        8 
C      -2.32655885      -2.85528013       0.48416767        6 
C      -3.41835324       2.04913699       0.01009871        6 
C       1.33127403       1.56988145      -0.30309392        6 
C       2.48942259       1.74687255       0.70009101        6 
C       2.89521696       0.26257814       0.92715848        6 
C       1.94069697      -0.48876270      -0.04789541        6 
O       1.76393862       0.47284100      -1.10161467        8 
H       0.00587915       1.45627845       1.45403653        1 
H       0.58879661      -0.75871901       1.67736233        1 
H      -1.88767927      -3.76557005       0.07204977        1 
H      -3.33267172       2.76939433      -0.80491239        1 
H       3.29994326       2.31579978       0.24184174        1 
H       2.18603140       2.26344043       1.61270027        1 
H       3.93124216       0.08410420       0.63556418        1 
H       2.77557770      -0.06546488       1.96171855        1 
H      -2.92911682      -3.08414025       1.36049506        1 
H      -2.92902835      -2.37103979      -0.28579519        1 
H      -4.01526114       2.45735521       0.82271069        1 
H      -3.86716999       1.13093799      -0.37274099        1 
H       1.11152743       2.42274421      -0.94147135        1 
C       2.47680969      -1.79634113      -0.58816697        6 
H       3.47162475      -1.63857356      -1.01032453        1 
H       2.56079264      -2.53202434       0.21738657        1 
H       1.82296160      -2.19184740      -1.36326037        1 
