32
Lattice="0.0 0.0 0.0 0.0 0.0 0.0 0.0 0.0 0.0" Properties=species:S:1:pos:R:3:Z:I:1 pbc="F F F"
C       0.04582798       0.80812138       0.79485243        6 
C       0.56228418      -0.66057861       0.54569315        6 
C      -1.32718133       1.11169640       0.20471192        6 
C      -0.47908722      -1.60450936      -0.02944641        6 
O      -1.39065376       2.33691343      -0.34576068        8 
O      -2.27821128       0.37120286       0.27308672        8 
O      -1.10893295      -2.25134937       0.97330006        8 
O      -0.68972576      -1.81557108      -1.19760894        8 
C      -2.22472501      -3.07199076       0.58512380        6 
C      -2.66311673       2.70736881      -0.91261140        6 
C       1.20298050       1.62314609       0.17079777        6 
C       2.47043046       1.49006225       1.04202037        6 
C       2.95156332       0.06425270       0.65474546        6 
C       1.83802315      -0.39091547      -0.32846428        6 
O       1.51385334       0.84919785      -0.99313988        8 
H      -0.05817836       0.99450845       1.86763267        1 
H       0.85321089      -1.09219462       1.50330873        1 
H      -1.90836999      -3.84639378      -0.11529583        1 
H      -2.93877962       2.00930972      -1.70391427        1 
H       3.20266561       2.24903861       0.76296712        1 
H       2.25902388       1.60540675       2.10776332        1 
H       3.90635243       0.09905081       0.12732876        1 
H       3.05936142      -0.61044567       1.50592390        1 
H      -2.59316236      -3.51602232       1.50746192        1 
H      -2.99357417      -2.45078905       0.12378956        1 
H      -2.51832948       3.70714412      -1.31542793        1 
H      -3.43730521       2.70777694      -0.14402362        1 
H       0.93330259       2.63340652      -0.11826282        1 
C       2.26374850      -1.44410843      -1.32766162        6 
H       3.18065345      -1.12037700      -1.82508196        1 
H       2.46656705      -2.39051704      -0.81768856        1 
H       1.48744853      -1.61151190      -2.07066139        1 
