32
Lattice="0.0 0.0 0.0 0.0 0.0 0.0 0.0 0.0 0.0" Properties=species:S:1:pos:R:3:Z:I:1 pbc="F F F"
C      -0.57577163       0.90297306       0.70282480        6 
C       0.66945465      -0.05414989       0.72727895        6 
C      -1.93995692       0.24215981       0.58390618        6 
C       0.39976685      -1.46185686       0.20634353        6 
O      -2.41732881       0.26758443      -0.67246273        8 
O      -2.54504670      -0.19814626       1.53085522        8 
O       1.54467130      -2.17111450       0.12235728        8 
O      -0.68257459      -1.95689689       0.01658450        8 
C       1.40910733      -3.55071755      -0.26823427        6 
C      -3.64005650      -0.45654713      -0.89280252        6 
C      -0.17918654       1.91892216      -0.40593021        6 
C       0.71778719       2.98575930       0.23812266        6 
C       1.96427353       2.12121104       0.57410141        6 
C       1.65532671       0.78367823      -0.17633952        6 
O       0.75328636       1.19618621      -1.22072308        8 
H      -0.62325146       1.40713088       1.67007790        1 
H       1.06335353      -0.17671640       1.73819115        1 
H       0.97323844      -3.62287865      -1.26586729        1 
H      -3.48408592      -1.51268980      -0.66853325        1 
H       0.95930534       3.76046010      -0.49155328        1 
H       0.26446542       3.46144936       1.11025452        1 
H       2.88266840       2.56712754       0.19059358        1 
H       2.09735650       1.96228850       1.64671532        1 
H       2.42025563      -3.95182304      -0.26255777        1 
H       0.77618358      -4.08733089       0.43988914        1 
H      -3.87368920      -0.31726774      -1.94624487        1 
H      -4.44066799      -0.06363441      -0.26436534        1 
H      -1.00346173       2.27375150      -1.01661133        1 
C       2.88081134       0.13091925      -0.77919351        6 
H       3.43715240       0.88556995      -1.33954273        1 
H       3.52672814      -0.27559469       0.00120187        1 
H       2.61429633      -0.67769473      -1.45665077        1 
