32
Lattice="0.0 0.0 0.0 0.0 0.0 0.0 0.0 0.0 0.0" Properties=species:S:1:pos:R:3:Z:I:1 pbc="F F F"
C      -0.02734368       1.10082800       0.49791331        6 
C       0.65794660      -0.28279198       0.78309220        6 
C      -1.35256199       1.11732551      -0.24948413        6 
C      -0.10358280      -1.58723301       0.65914786        6 
O      -2.36787730       1.34083512       0.62412161        8 
O      -1.52045471       0.95788255      -1.42846725        8 
O      -1.11667221      -1.55598164      -0.21459775        8 
O       0.21111735      -2.57639410       1.28123092        8 
C      -1.84922139      -2.78007847      -0.40341015        6 
C      -3.69062466       1.33085312       0.05957314        6 
C       1.06603000       1.75662352      -0.39468304        6 
C       2.31612623       2.08481274       0.45342472        6 
C       2.97332513       0.67980410       0.57530368        6 
C       1.93576315      -0.20868864      -0.15644707        6 
O       1.49641868       0.66165231      -1.20668766        8 
H      -0.17291499       1.63967605       1.43375723        1 
H       0.99572317      -0.29344862       1.81923658        1 
H      -2.31738895      -3.09176782       0.53163006        1 
H      -3.79124137       2.10915912      -0.69853910        1 
H       2.96333370       2.78389758      -0.07796831        1 
H       2.06061496       2.53003915       1.41748521        1 
H       3.92362929       0.63961358       0.03961021        1 
H       3.15006006       0.36385060       1.60490069        1 
H      -2.59996302      -2.54862145      -1.15548616        1 
H      -1.18474530      -3.57098738      -0.75380614        1 
H      -4.36495153       1.51840575       0.89251019        1 
H      -3.90141408       0.36115735      -0.39482757        1 
H       0.70047654       2.55860894      -1.03124450        1 
C       2.44878811      -1.51339553      -0.72001227        6 
H       3.30668697      -1.32028214      -1.36723391        1 
H       2.75299579      -2.18693924       0.08323619        1 
H       1.67644065      -2.00861185      -1.31219298        1 
