32
Lattice="0.0 0.0 0.0 0.0 0.0 0.0 0.0 0.0 0.0" Properties=species:S:1:pos:R:3:Z:I:1 pbc="F F F"
C      -0.21832952       0.87145068       0.69264254        6 
C       0.69372335      -0.39961774       0.60284383        6 
C      -1.67298165       0.65765837       0.31329264        6 
C       0.03987870      -1.58904416      -0.07846296        6 
O      -2.22248104       1.76650269      -0.21620709        8 
O      -2.29183566      -0.35823583       0.51593847        8 
O      -0.08380442      -2.61893619       0.78610079        8 
O      -0.28328249      -1.64939366      -1.23783169        8 
C      -0.76170320      -3.78080423       0.27492586        6 
C      -3.61517625       1.66941706      -0.57651479        6 
C       0.58954750       1.89955110      -0.14437113        6 
C       1.77439059       2.40307335       0.70519130        6 
C       2.68512684       1.14342997       0.70278251        6 
C       1.89937873       0.17422861      -0.22572750        6 
O       1.23516186       1.08253882      -1.12560499        8 
H      -0.26984526       1.19862224       1.73666633        1 
H       1.01397650      -0.71985708       1.59262968        1 
H      -0.22821690      -4.19150343      -0.58386063        1 
H      -3.75845839       0.87592696      -1.31069336        1 
H       2.26003571       3.24448600       0.20851588        1 
H       1.47407217       2.72518030       1.70468803        1 
H       3.66284778       1.35790918       0.26823641        1 
H       2.84584113       0.72297729       1.69760716        1 
H      -0.77418815      -4.49457074       1.09593498        1 
H      -1.77778360      -3.51680717      -0.02187115        1 
H      -3.87104592       2.63768768      -1.00055797        1 
H      -4.22349494       1.46084591       0.30486357        1 
H      -0.01209124       2.66089516      -0.63012251        1 
C       2.74965397      -0.82188137      -0.98292565        6 
H       3.54485528      -0.29776692      -1.51744969        1 
H       3.21150924      -1.52800605      -0.28667172        1 
H       2.15141744      -1.37753931      -1.70455909        1 
