32
Lattice="0.0 0.0 0.0 0.0 0.0 0.0 0.0 0.0 0.0" Properties=species:S:1:pos:R:3:Z:I:1 pbc="F F F"
C      -0.02199882       0.88019760       0.57838864        6 
C       0.67052353      -0.52182353       0.62235595        6 
C      -1.29063308       0.93506168      -0.24599093        6 
C      -0.21712618      -1.69208905       0.23144213        6 
O      -2.20405409       1.73938419       0.34447598        8 
O      -1.46701506       0.40452995      -1.31400402        8 
O      -1.41675927      -1.56957916       0.84945549        8 
O       0.09075236      -2.65656516      -0.41867169        8 
C      -2.38805070      -2.58866281       0.55093046        6 
C      -3.43805292       1.91737722      -0.37553821        6 
C       1.08814035       1.71401680      -0.12929183        6 
C       2.27207861       1.91390707       0.84291733        6 
C       2.94076559       0.51093532       0.77971219        6 
C       1.99289367      -0.25725679      -0.18613565        6 
O       1.59820972       0.79632578      -1.09091723        8 
H      -0.24206609       1.26332270       1.57299768        1 
H       0.92725802      -0.74111929       1.66388291        1 
H      -2.00393871      -3.57495545       0.81437229        1 
H      -3.25078135       2.35948854      -1.35525938        1 
H       2.94031712       2.69126516       0.46979785        1 
H       1.94561449       2.19919500       1.84508164        1 
H       3.93665308       0.56894871       0.33760107        1 
H       3.03099400       0.02613936       1.75374422        1 
H      -3.26020379      -2.34253507       1.15298645        1 
H      -2.63556940      -2.56619534      -0.51148895        1 
H      -4.03915830       2.58437303       0.23856714        1 
H      -3.94162824       0.95824655      -0.50717388        1 
H       0.72863092       2.61305834      -0.62656078        1 
C       2.64034414      -1.38840643      -0.95183988        6 
H       3.54257457      -1.01284409      -1.44064753        1 
H       2.91998358      -2.19989789      -0.27630701        1 
H       1.96409048      -1.79378645      -1.70045475        1 
