32
Lattice="0.0 0.0 0.0 0.0 0.0 0.0 0.0 0.0 0.0" Properties=species:S:1:pos:R:3:Z:I:1 pbc="F F F"
C      -0.55834649       0.80537954       0.66591723        6 
C       0.76943553      -0.01540022       0.78401845        6 
C      -1.71730643       0.09740158      -0.01179554        6 
C       0.52751822      -1.51989126       0.76574701        6 
O      -2.82436097       0.87008127       0.06469992        8 
O      -1.69862932      -0.97635343      -0.55715205        8 
O       0.98634693      -2.15980029      -0.31550020        8 
O      -0.02085046      -2.07112141       1.69182745        8 
C       0.63928665      -3.55384622      -0.41162588        6 
C      -4.00976132       0.33826405      -0.55791968        6 
C      -0.08231033       1.97458193      -0.24511972        6 
C       0.90334737       2.87483927       0.52908959        6 
C       2.19323633       2.01005314       0.48014013        6 
C       1.69626675       0.72871906      -0.24744694        6 
O       0.74835746       1.29095644      -1.18554016        8 
H      -0.91101754       1.16550389       1.63249823        1 
H       1.16430095       0.14637828       1.78918570        1 
H      -0.44540389      -3.65663491      -0.45862814        1 
H      -3.84329612       0.18321242      -1.62502458        1 
H       1.03855409       3.82451753       0.00942326        1 
H       0.55900155       3.09118053       1.54247009        1 
H       2.96438094       2.49081877      -0.12397427        1 
H       2.61650256       1.79900373       1.46378734        1 
H       1.09906470      -3.90232591      -1.33395790        1 
H       1.02431540      -4.10742352       0.44570653        1 
H      -4.78245387       1.08622456      -0.39476153        1 
H      -4.28866484      -0.60961296      -0.09547897        1 
H      -0.88676462       2.49188840      -0.76228983        1 
C       2.77846375      -0.03489161      -0.97844476        6 
H       3.37494142       0.66215942      -1.57168802        1 
H       3.43963601      -0.53420160      -0.26524968        1 
H       2.34984452      -0.79023823      -1.63156595        1 
