32
Lattice="0.0 0.0 0.0 0.0 0.0 0.0 0.0 0.0 0.0" Properties=species:S:1:pos:R:3:Z:I:1 pbc="F F F"
C       0.39468470       1.11226839       0.64403649        6 
C       0.55146302      -0.44504192       0.81016101        6 
C      -0.91416061       1.73561936       0.19743800        6 
C      -0.76436694      -1.21067317       0.80491154        6 
O      -1.74245856       0.89339049      -0.43528083        8 
O      -1.14201413       2.91442292       0.34007887        8 
O      -1.04622459      -1.84881940      -0.33950976        8 
O      -1.47209001      -1.25999157       1.78447116        8 
C      -2.30924564      -2.53364530      -0.38204278        6 
C      -2.97625333       1.45216825      -0.92409066        6 
C       1.48088849       1.39414413      -0.44575030        6 
C       2.87723428       1.29991752       0.19728176        6 
C       3.01022585      -0.23767262       0.36799568        6 
C       1.67337024      -0.75502843      -0.24573597        6 
O       1.41557918       0.23006083      -1.26925808        8 
H       0.64462211       1.62786487       1.57016940        1 
H       0.93586798      -0.63117127       1.81394167        1 
H      -3.12554912      -1.82832356      -0.21910481        1 
H      -3.56996077       1.83982334      -0.09531445        1 
H       3.63218397       1.69217845      -0.48588504        1 
H       2.94436364       1.85637536       1.13406080        1 
H       3.85091067      -0.62934032      -0.20657006        1 
H       3.13759560      -0.55110795       1.40582709        1 
H      -2.36904066      -2.96835103      -1.37758768        1 
H      -2.35184712      -3.31161271       0.38166924        1 
H      -3.49083322       0.62872162      -1.41424372        1 
H      -2.77435726       2.25531958      -1.63361276        1 
H       1.29311293       2.28575635      -1.03997417        1 
C       1.77587475      -2.14376432      -0.83883644        6 
H       2.65615824      -2.19755294      -1.48336992        1 
H       1.89027441      -2.88589508      -0.04338014        1 
H       0.89247248      -2.39298251      -1.41974779        1 
