32
Lattice="0.0 0.0 0.0 0.0 0.0 0.0 0.0 0.0 0.0" Properties=species:S:1:pos:R:3:Z:I:1 pbc="F F F"
C       0.35934428       1.15328881       0.60991554        6 
C       0.56902956      -0.39483419       0.84225782        6 
C      -1.04962707       1.61631555       0.30656602        6 
C      -0.75280355      -1.14743147       0.74765221        6 
O      -1.55662524       1.00892793      -0.78526481        8 
O      -1.64280905       2.44896803       0.94650244        8 
O      -0.84705442      -2.01634429      -0.26662590        8 
O      -1.64760560      -0.95137849       1.53719009        8 
C      -2.12036910      -2.67083074      -0.41964459        6 
C      -2.91969315       1.33009820      -1.11394030        6 
C       1.35931023       1.40740731      -0.56282565        6 
C       2.77232602       1.50942975       0.03572619        6 
C       3.00960122       0.02604418       0.43037316        6 
C       1.74361016      -0.68586253      -0.14829741        6 
O       1.40015505       0.16281439      -1.26329065        8 
H       0.65434899       1.71179099       1.49592385        1 
H       0.88952649      -0.55190228       1.87428319        1 
H      -2.90212155      -1.93007651      -0.59270874        1 
H      -3.58249328       1.00890619      -0.30843100        1 
H       3.48006314       1.83462177      -0.72847305        1 
H       2.82814505       2.20441722       0.87560958        1 
H       3.90477917      -0.37429191      -0.04712493        1 
H       3.11200476      -0.12422059       1.50717846        1 
H      -2.00805927      -3.31967837      -1.28536097        1 
H      -2.36417390      -3.25175611       0.47068729        1 
H      -3.13196266       0.78363523      -2.03053968        1 
H      -3.03543673       2.40321460      -1.27086094        1 
H       1.06900517       2.20366800      -1.24512947        1 
C       2.00781511      -2.10766528      -0.59797844        6 
H       2.90764361      -2.13034880      -1.21671867        1 
H       2.17594975      -2.75253092       0.26959559        1 
H       1.17342543      -2.50615716      -1.16751442        1 
