32
Lattice="0.0 0.0 0.0 0.0 0.0 0.0 0.0 0.0 0.0" Properties=species:S:1:pos:R:3:Z:I:1 pbc="F F F"
C      -0.28943400       0.98211018       0.36418372        6 
C       0.63568078      -0.18512564       0.86687781        6 
C      -1.69488387       0.63365267      -0.08227835        6 
C       0.08175951      -1.59094721       0.67980018        6 
O      -2.58142002       1.46669574       0.51725532        8 
O      -2.02704371      -0.21430669      -0.87123212        8 
O       0.10888588      -2.01312592      -0.58630181        8 
O      -0.29269454      -2.26966963       1.61053008        8 
C      -0.51848428      -3.27773905      -0.85577004        6 
C      -3.96345929       1.27462652       0.15988390        6 
C       0.59372717       1.60059219      -0.77493113        6 
C       1.62483306       2.52656592      -0.10282800        6 
C       2.52400391       1.46845576       0.59741480        6 
C       1.94105020       0.12623108       0.05548415        6 
O       1.40131739       0.51637616      -1.22202231        8 
H      -0.40336863       1.71068702       1.16489426        1 
H       0.80211491      -0.09000688       1.93898457        1 
H      -1.58301946      -3.21718290      -0.62580983        1 
H      -4.10671440       1.43211157      -0.91029407        1 
H       2.17924599       3.07848837      -0.86376815        1 
H       1.17355207       3.24543620       0.58347860        1 
H       3.56837649       1.56825539       0.29833536        1 
H       2.48281118       1.52226716       1.68722500        1 
H      -0.37064707      -3.44909764      -1.91950182        1 
H      -0.05988739      -4.07296519      -0.26586247        1 
H      -4.51653002       2.01412479       0.73459453        1 
H      -4.28605040       0.26532706       0.41984615        1 
H       0.03731069       2.01819700      -1.61131444        1 
C       2.95409873      -0.98816105      -0.08779297        6 
H       3.80634761      -0.63749695      -0.67373647        1 
H       3.31810625      -1.29420306       0.89704253        1 
H       2.52069676      -1.85256316      -0.58833149        1 
