32
Lattice="0.0 0.0 0.0 0.0 0.0 0.0 0.0 0.0 0.0" Properties=species:S:1:pos:R:3:Z:I:1 pbc="F F F"
C       0.34846706       1.05800844       0.54767623        6 
C       0.40969305      -0.50504128       0.60971384        6 
C      -0.91163734       1.77675384       0.10071194        6 
C      -0.73184345      -1.24281648      -0.06773654        6 
O      -2.01873371       1.02460168       0.20858767        8 
O      -0.92846587       2.94895289      -0.19019862        8 
O      -1.42682749      -1.96278512       0.84530718        8 
O      -0.97755696      -1.26029055      -1.24665701        8 
C      -2.53923477      -2.71383595       0.33022361        6 
C      -3.26133919       1.65254659      -0.15878875        6 
C       1.59965275       1.39844014      -0.31277982        6 
C       2.85148248       1.29855760       0.57724513        6 
C       2.91707959      -0.23887557       0.79802191        6 
C       1.77641710      -0.75324789      -0.13087800        6 
O       1.73241223       0.25367835      -1.15870097        8 
H       0.49274680       1.44666644       1.56129960        1 
H       0.44981460      -0.84474005       1.64300655        1 
H      -2.19640930      -3.47380748      -0.37429299        1 
H      -3.46327435       2.50622763       0.48969781        1 
H       3.72458726       1.65676394       0.02999390        1 
H       2.76823952       1.87478311       1.50093515        1 
H       3.87381728      -0.65080247       0.47284969        1 
H       2.76477371      -0.53491805       1.83832430        1 
H      -3.00379893      -3.17887568       1.19719788        1 
H      -3.24334995      -2.05177168      -0.17620722        1 
H      -4.02078215       0.88438262      -0.03179350        1 
H      -3.22139313       1.98486178      -1.19656230        1 
H       1.49516899       2.30113750      -0.90806845        1 
C       2.00449795      -2.12754825      -0.72080157        6 
H       2.98580884      -2.16450894      -1.19841086        1 
H       1.97820255      -2.88588876       0.06727084        1 
H       1.24567143      -2.36350661      -1.46593918        1 
