32
Lattice="0.0 0.0 0.0 0.0 0.0 0.0 0.0 0.0 0.0" Properties=species:S:1:pos:R:3:Z:I:1 pbc="F F F"
C      -0.25903872       0.65213627       0.86199894        6 
C       0.65580308      -0.54408920       0.49686467        6 
C      -1.44688994       0.83620706      -0.09127063        6 
C       0.05829761      -1.90587509       0.20065949        6 
O      -1.88107755       2.11707077      -0.06134118        8 
O      -2.00626328      -0.02273323      -0.72242513        8 
O      -1.11161137      -2.07057606       0.84360239        8 
O       0.65885618      -2.81603729      -0.32015364        8 
C      -1.72488304      -3.36553467       0.72721036        6 
C      -3.01728907       2.41400246      -0.89304723        6 
C       0.74627672       1.79337422       0.53726139        6 
C       2.07002669       1.67515811       1.33367812        6 
C       2.84805574       0.61415020       0.49682275        6 
C       1.73038006       0.12119873      -0.44987853        6 
O       1.11692655       1.38909235      -0.79370498        8 
H      -0.62374720       0.62716551       1.89000334        1 
H       1.18294497      -0.79577367       1.42599210        1 
H      -1.06361771      -4.14315537       1.11332976        1 
H      -2.78309930       2.21234637      -1.93928999        1 
H       2.58914216       2.63373340       1.35659131        1 
H       1.89984967       1.36596438       2.36820893        1 
H       3.64164276       1.07852468      -0.09167461        1 
H       3.28366616      -0.18656401       1.09808093        1 
H      -2.63699450      -3.30648248       1.31691152        1 
H      -1.96102646      -3.57643316      -0.31678558        1 
H      -3.21754577       3.47260810      -0.74240653        1 
H      -3.87792387       1.81295754      -0.59518882        1 
H       0.30489093       2.78365221       0.51045604        1 
C       2.15495907      -0.60946419      -1.69916177        6 
H       2.84748231       0.01962988      -2.26394375        1 
H       2.64328649      -1.55050918      -1.44724639        1 
H       1.29305250      -0.83672020      -2.32830443        1 
