32
Lattice="0.0 0.0 0.0 0.0 0.0 0.0 0.0 0.0 0.0" Properties=species:S:1:pos:R:3:Z:I:1 pbc="F F F"
C       0.09354306       1.13362388       0.36814045        6 
C       0.53914832      -0.29154517       0.83408418        6 
C      -1.34704563       1.31282708      -0.06607933        6 
C      -0.32352380      -1.47599387       0.44483561        6 
O      -2.18369682       0.89074078       0.90877609        8 
O      -1.71737337       1.85195189      -1.07766072        8 
O      -1.09711379      -1.23800635      -0.62673962        8 
O      -0.23374129      -2.55956881       0.97350243        8 
C      -1.87088747      -2.34279836      -1.12470978        6 
C      -3.58935024       0.99019452       0.62311140        6 
C       1.15330797       1.48239069      -0.70629914        6 
C       2.41759255       1.97967743       0.01581025        6 
C       2.88893609       0.65999733       0.69074236        6 
C       1.92243341      -0.39206147       0.06725864        6 
O       1.57428153       0.20148968      -1.19476986        8 
H       0.19173748       1.80977490       1.22399396        1 
H       0.68241774      -0.35362068       1.91158410        1 
H      -2.56789498      -2.69344952      -0.36151841        1 
H      -3.87160410       2.02589979       0.42869194        1 
H       3.14893072       2.33390883      -0.71243670        1 
H       2.21941690       2.78778625       0.72255788        1 
H       3.92020357       0.41956693       0.42836407        1 
H       2.81924409       0.68314161       1.78030976        1 
H      -2.40552558      -1.95272978      -1.98773567        1 
H      -1.21551431      -3.16405028      -1.41782941        1 
H      -4.09389526       0.61548061       1.51108503        1 
H      -3.84125254       0.38024147      -0.24644153        1 
H       0.77816054       2.08874685      -1.52555672        1 
C       2.51552762      -1.76846464      -0.13070748        6 
H       3.46581547      -1.68012999      -0.66148134        1 
H       2.69018538      -2.25132455       0.83266495        1 
H       1.85323708      -2.40931413      -0.71327361        1 
