32
Lattice="0.0 0.0 0.0 0.0 0.0 0.0 0.0 0.0 0.0" Properties=species:S:1:pos:R:3:Z:I:1 pbc="F F F"
C      -0.37124942       1.07597637       0.37146904        6 
C       0.50683807      -0.19330355       0.68292433        6 
C      -1.76955236       0.84646503      -0.17394413        6 
C      -0.08193127      -1.49506647       0.14003554        6 
O      -2.63555514       0.62930113       0.83706188        8 
O      -2.09400982       0.95062832      -1.33017357        8 
O       0.84309797      -2.45983908      -0.00708094        8 
O      -1.26049557      -1.70455226      -0.01329793        8 
C       0.35291714      -3.74925264      -0.42494187        6 
C      -3.96931944       0.26008699       0.44650028        6 
C       0.54788227       1.87170946      -0.59240919        6 
C       1.53317668       2.68079120       0.26126840        6 
C       2.35877607       1.52246342       0.88326864        6 
C       1.87311114       0.28071706       0.05963064        6 
O       1.39957897       0.87107437      -1.16634435        8 
H      -0.51417251       1.62520736       1.30446006        1 
H       0.59577162      -0.35030464       1.76138399        1 
H      -0.15980530      -3.66683281      -1.38383741        1 
H      -4.41760820       1.03490297      -0.17714460        1 
H       2.15336345       3.31079477      -0.37871628        1 
H       1.04066483       3.31739312       0.99902211        1 
H       3.43047845       1.66787519       0.74459714        1 
H       2.17929833       1.39667440       1.95376774        1 
H       1.23690685      -4.37692305      -0.51383252        1 
H      -0.33474609      -4.15473039       0.31862400        1 
H      -4.52442073       0.14560722       1.37522199        1 
H      -3.94063813      -0.68209630      -0.10300614        1 
H       0.01857762       2.39860489      -1.38106409        1 
C       2.98300145      -0.70995560      -0.22795053        6 
H       3.86118173      -0.15976188      -0.57326835        1 
H       3.25103381      -1.26274591       0.67490139        1 
H       2.69565475      -1.42481563      -0.99418682        1 
