32
Lattice="0.0 0.0 0.0 0.0 0.0 0.0 0.0 0.0 0.0" Properties=species:S:1:pos:R:3:Z:I:1 pbc="F F F"
C       0.19893008       1.20083711       0.51924826        6 
C       0.58685460      -0.29659210       0.83235366        6 
C      -1.14080618       1.50325743      -0.14345574        6 
C      -0.54709005      -1.30323166       0.75773474        6 
O      -2.14617190       0.79556660       0.39693071        8 
O      -1.30431805       2.35020182      -0.98710067        8 
O      -0.80267202      -1.71598197      -0.49945321        8 
O      -1.19763635      -1.64438580       1.71476385        8 
C      -1.93823390      -2.58241496      -0.66221959        6 
C      -3.46356320       1.03980705      -0.12812547        6 
C       1.36783172       1.61062820      -0.40919151        6 
C       2.67119423       1.73223291       0.40493890        6 
C       3.02553199       0.23541423       0.62354074        6 
C       1.84529386      -0.48126388      -0.09198393        6 
O       1.57174140       0.41993702      -1.18164552        8 
H       0.19304655       1.77898250       1.44746103        1 
H       0.89543097      -0.35154351       1.87672952        1 
H      -2.84930710      -2.07147975      -0.34697175        1 
H      -3.74021524       2.08644832       0.00488546        1 
H       3.43621163       2.24047509      -0.18340263        1 
H       2.53708167       2.28924444       1.33478579        1 
H       3.96109091      -0.02526195       0.12606949        1 
H       3.11206017      -0.04573312       1.67463219        1 
H      -1.97591010      -2.81397916      -1.72448636        1 
H      -1.81691510      -3.49264248      -0.07320053        1 
H      -4.12407308       0.39214908       0.44419163        1 
H      -3.49866051       0.79000942      -1.18975834        1 
H       1.13005957       2.44099828      -1.06697497        1 
C       2.17045381      -1.87023144      -0.59703135        6 
H       3.09255594      -1.83879304      -1.18148050        1 
H       2.32303417      -2.55262570       0.24438209        1 
H       1.36953414      -2.25894885      -1.22202419        1 
