32
Lattice="0.0 0.0 0.0 0.0 0.0 0.0 0.0 0.0 0.0" Properties=species:S:1:pos:R:3:Z:I:1 pbc="F F F"
C      -0.15163990       0.82474005       0.68797304        6 
C       0.68070088      -0.47960412       0.60465996        6 
C      -1.36102723       0.90066001      -0.22630678        6 
C      -0.01254591      -1.81156426       0.39033210        6 
O      -2.25248551       1.79249186       0.27412210        8 
O      -1.51707945       0.32534368      -1.27090681        8 
O      -1.34016244      -1.74259629       0.59612777        8 
O       0.57820392      -2.85574359       0.24561240        8 
C      -2.06525342      -2.98189378       0.50342104        6 
C      -3.42038957       2.02938918      -0.53227691        6 
C       0.90229856       1.82044706       0.11117868        6 
C       2.14754835       1.89186041       1.03339095        6 
C       2.92137715       0.61273350       0.59727257        6 
C       1.88550692      -0.06216760      -0.33327073        6 
O       1.36894172       1.09582982      -1.02638268        8 
H      -0.45565387       1.07430321       1.70342023        1 
H       1.10477284      -0.64087013       1.60204872        1 
H      -1.69226363      -3.70050129       1.23482572        1 
H      -3.13782073       2.42868068      -1.50776910        1 
H       2.72166788       2.79796231       0.83520336        1 
H       1.87625041       1.89393052       2.09176764        1 
H       3.80985212       0.87069921       0.01798946        1 
H       3.22538335      -0.02232173       1.43172449        1 
H      -3.10215488      -2.72524410       0.70842431        1 
H      -1.96696812      -3.40140195      -0.49864590        1 
H      -4.01401419       2.75389715       0.02120158        1 
H      -3.97992490       1.10335598      -0.67443161        1 
H       0.49239956       2.77986131      -0.19808326        1 
C       2.41507251      -1.06801887      -1.32574575        6 
H       3.20873068      -0.60275945      -1.91485344        1 
H       2.81149735      -1.94455114      -0.81321803        1 
H       1.62488308      -1.39783206      -2.00178627        1 
