32
Lattice="0.0 0.0 0.0 0.0 0.0 0.0 0.0 0.0 0.0" Properties=species:S:1:pos:R:3:Z:I:1 pbc="F F F"
C      -0.05878755       0.93705886       0.87453827        6 
C       0.66238658      -0.44997944       0.71184184        6 
C      -1.43990503       1.00363806       0.21030716        6 
C      -0.27611214      -1.64467136       0.78390043        6 
O      -1.58995727       2.10323557      -0.55429343        8 
O      -2.33766620       0.22373204       0.40986216        8 
O      -0.40540315      -2.32391379      -0.36918878        8 
O      -0.89141282      -1.90882038       1.78601923        8 
C      -1.38931376      -3.37756059      -0.36477587        6 
C      -2.87299336       2.26108395      -1.18652494        6 
C       0.96258179       1.81940235       0.12326499        6 
C       2.34683137       1.79261243       0.81485574        6 
C       2.93173460       0.45110904       0.28707112        6 
C       1.69934921      -0.14787348      -0.43892418        6 
O       1.15939220       1.03697944      -1.06572109        8 
H      -0.19743839       1.18895540       1.92741402        1 
H       1.23884400      -0.58366746       1.63146003        1 
H      -2.37176663      -2.96446710      -0.13414105        1 
H      -3.06888179       1.42343615      -1.85732935        1 
H       2.94911685       2.64599451       0.50175464        1 
H       2.26146837       1.82699784       1.90378424        1 
H       3.72629058       0.62683290      -0.44057664        1 
H       3.32150536      -0.19877070       1.07289642        1 
H      -1.36847191      -3.79492031      -1.36931889        1 
H      -1.13178156      -4.13807943       0.37357602        1 
H      -2.80549101       3.19124724      -1.74631320        1 
H      -3.66502609       2.31562888      -0.43821042        1 
H       0.59493309       2.80391099      -0.14405514        1 
C       2.00595980      -1.20115895      -1.47781987        6 
H       2.77290221      -0.82208648      -2.15762788        1 
H       2.37985568      -2.11147795      -1.00356412        1 
H       1.11653771      -1.45828565      -2.04905747        1 
