32
Lattice="0.0 0.0 0.0 0.0 0.0 0.0 0.0 0.0 0.0" Properties=species:S:1:pos:R:3:Z:I:1 pbc="F F F"
C       0.34068226       1.09042959       0.52725138        6 
C       0.39435127      -0.46884533       0.61438501        6 
C      -0.93347408       1.76965122       0.06173110        6 
C      -0.73393343      -1.19642304      -0.09167621        6 
O      -2.03139907       1.07374179       0.41114886        8 
O      -0.96975331       2.87301843      -0.42512240        8 
O      -1.32780933      -2.07307938       0.75204706        8 
O      -1.04068777      -1.08607320      -1.25161995        8 
C      -2.39530813      -2.85528787       0.18784065        6 
C      -3.29922975       1.64278885       0.03506011        6 
C       1.59290896       1.41414360      -0.33166476        6 
C       2.83969464       1.32851758       0.56802361        6 
C       2.90188461      -0.20529802       0.81886432        6 
C       1.76812435      -0.73425202      -0.10895349        6 
O       1.73382234       0.25167370      -1.15515909        8 
H       0.47497139       1.49518171       1.53643919        1 
H       0.41562249      -0.80690559       1.64847186        1 
H      -2.03194600      -3.45264620      -0.64978992        1 
H      -3.42073068       2.63240821       0.47724416        1 
H       3.71710295       1.67455901       0.01993350        1 
H       2.75311677       1.92100473       1.48122103        1 
H       3.86046532      -0.62421682       0.50819647        1 
H       2.74120179      -0.48189903       1.86322742        1 
H      -2.74358187      -3.49715875       0.99422023        1 
H      -3.19956297      -2.20537592      -0.16099210        1 
H      -4.04929484       0.95439217       0.41825609        1 
H      -3.36670988       1.71725041      -1.05101865        1 
H       1.49081619       2.30365019      -0.94658541        1 
C       1.98824841      -2.12114785      -0.67110590        6 
H       2.96893652      -2.17523022      -1.14826187        1 
H       1.95342882      -2.86426689       0.13049597        1 
H       1.22935120      -2.36609745      -1.41468212        1 
