32
Lattice="0.0 0.0 0.0 0.0 0.0 0.0 0.0 0.0 0.0" Properties=species:S:1:pos:R:3:Z:I:1 pbc="F F F"
C      -0.15333752       1.13880065       0.26444085        6 
C       0.46522557      -0.23483983       0.73619478        6 
C      -1.57809302       1.11314938      -0.25167911        6 
C      -0.37689632      -1.43235491       0.28540159        6 
O      -2.44946590       1.19373037       0.77113042        8 
O      -1.89806687       1.13138910      -1.41510066        8 
O       0.32353402      -2.43804461      -0.25631943        8 
O      -1.57292238      -1.48973424       0.44806199        8 
C      -0.43951865      -3.58357259      -0.68504684        6 
C      -3.83711041       1.02991808       0.43196321        6 
C       0.90775095       1.62313972      -0.76432847        6 
C       1.99642085       2.35855881       0.03007298        6 
C       2.55985895       1.16953920       0.85356056        6 
C       1.90801558      -0.07330283       0.15028071        6 
O       1.59059467       0.42690144      -1.16468886        8 
H      -0.17086815       1.80805552       1.12597221        1 
H       0.47054509      -0.28602519       1.82835205        1 
H      -1.18268979      -3.28602242      -1.42539375        1 
H      -4.14643523       1.77435991      -0.30305965        1 
H       2.74732732       2.76463936      -0.64978088        1 
H       1.60609872       3.17296705       0.64400429        1 
H       3.64674201       1.11011652       0.79405241        1 
H       2.29003925       1.22208450       1.91122957        1 
H       0.28827751      -4.26360204      -1.12227380        1 
H      -0.94049331      -4.04804304       0.16537808        1 
H      -4.38177227       1.15991199       1.36466214        1 
H      -3.99869061       0.02765046       0.03239891        1 
H       0.49625208       2.12152919      -1.63746644        1 
C       2.84990499      -1.25895609       0.07576021        6 
H       3.83262387      -0.91141945      -0.25091742        1 
H       2.95973172      -1.71688970       1.06265851        1 
H       2.49180177      -2.01407667      -0.61661013        1 
