32
Lattice="0.0 0.0 0.0 0.0 0.0 0.0 0.0 0.0 0.0" Properties=species:S:1:pos:R:3:Z:I:1 pbc="F F F"
C      -0.88483714      -0.12354257      -0.90665303        6 
C       0.63819829      -0.26009674      -0.62628524        6 
C      -1.59011737       0.94800922      -0.05831410        6 
C       1.45441882       1.02129184      -0.63450421        6 
O      -2.86844117       0.58240448       0.20136650        8 
O      -1.15287170       2.02480814       0.24977368        8 
O       2.58487649       0.91700685       0.09596520        8 
O       1.17688197       1.99055630      -1.29101882        8 
C       3.45263856       2.06686295       0.06875995        6 
C      -3.65750793       1.53261406       0.93710274        6 
C      -1.32576923      -1.50864664      -0.36197615        6 
C      -0.60202606      -2.69195363      -1.05315769        6 
C       0.76034659      -2.71471580      -0.29858859        6 
C       0.67429817      -1.38802692       0.48998180        6 
O      -0.70218605      -1.44614220       0.93401535        8 
H      -1.11030028       0.06185133      -1.95812255        1 
H       1.04905266      -0.73095482      -1.52939382        1 
H       2.92086202       2.95044630       0.42338834        1 
H      -3.19546319       1.74368177       1.90238344        1 
H      -1.16012462      -3.61755749      -0.90773511        1 
H      -0.49448737      -2.53665834      -2.12960204        1 
H       0.81108749      -3.55123967       0.40148635        1 
H       1.62872997      -2.76368872      -0.95925580        1 
H       4.27890662       1.82092276       0.73224327        1 
H       3.81352979       2.24833179      -0.94496655        1 
H      -4.62764209       1.05897332       1.07276823        1 
H      -3.75845746       2.46282825       0.37548697        1 
H      -2.39734308      -1.62453477      -0.24956752        1 
C       1.58396633      -1.25079511       1.68701848        6 
H       1.37684044      -2.07213929       2.37733989        1 
H       2.63106673      -1.29173087       1.38773343        1 
H       1.41421483      -0.30543853       2.20355848        1 
