32
Lattice="0.0 0.0 0.0 0.0 0.0 0.0 0.0 0.0 0.0" Properties=species:S:1:pos:R:3:Z:I:1 pbc="F F F"
C      -0.76578026       0.65704005      -0.89388627        6 
C       0.06218229      -0.64030154      -0.59429308        6 
C      -0.35748596       2.05246148      -0.44850340        6 
C       1.52955617      -0.58417347      -0.20305339        6 
O       0.28512944       2.09655713       0.71449639        8 
O      -0.72161893       3.03545514      -1.05868779        8 
O       2.20654016      -1.49321491      -0.96120466        8 
O       2.06886598       0.06809365       0.65047931        8 
C       3.60382734      -1.64585665      -0.65652459        6 
C       0.61680570       3.40010871       1.22097495        6 
C      -2.08407493       0.29636631      -0.12830298        6 
C      -2.80473483      -0.88018019      -0.82754811        6 
C      -1.96934689      -2.08888103      -0.31591103        6 
C      -0.85119412      -1.37170406       0.48005870        6 
O      -1.58006298      -0.28464304       1.07318773        8 
H      -0.94956983       0.74768327      -1.96382617        1 
H       0.04947764      -1.23802172      -1.50383081        1 
H       3.73634569      -1.96215241       0.37964461        1 
H       1.22612883       3.94545639       0.49882429        1 
H      -3.84263672      -0.94141846      -0.49763865        1 
H      -2.80403334      -0.77858027      -1.91450140        1 
H      -2.55274051      -2.70992350       0.36662389        1 
H      -1.58355202      -2.72575974      -1.11346298        1 
H       3.96811732      -2.40980630      -1.34006275        1 
H       4.13540244      -0.70583731      -0.81255144        1 
H       1.17701716       3.21549871       2.13437402        1 
H      -0.29012821       3.97026523       1.42995981        1 
H      -2.71011114       1.15490424       0.10544058        1 
C      -0.15405391      -2.19158191       1.54021450        6 
H      -0.89206128      -2.62007975       2.22166412        1 
H       0.40629605      -3.00980327       1.07997987        1 
H       0.53483525      -1.57361581       2.11776549        1 
