32
Lattice="0.0 0.0 0.0 0.0 0.0 0.0 0.0 0.0 0.0" Properties=species:S:1:pos:R:3:Z:I:1 pbc="F F F"
C       0.46264946       1.09465389       0.74493215        6 
C       0.45839746      -0.47016152       0.76005477        6 
C      -0.77504671       1.78940378       0.20874990        6 
C      -0.95076999      -1.04351523       0.77736854        6 
O      -1.34649692       1.12150358      -0.80993074        8 
O      -1.15642083       2.86464920       0.60361483        8 
O      -1.12434332      -2.13108400       0.01143908        8 
O      -1.81491180      -0.59472696       1.49327001        8 
C      -2.43401074      -2.73008056       0.05280016        6 
C      -2.53681236       1.70391389      -1.36748986        6 
C       1.65910449       1.35641592      -0.21542867        6 
C       2.97694532       0.95377827       0.48132430        6 
C       2.91904805      -0.59421567       0.34884970        6 
C       1.54001858      -0.80764610      -0.33952915        6 
O       1.48331144       0.34444706      -1.20748548        8 
H       0.63789872       1.51953948       1.73133868        1 
H       0.84833202      -0.79524147       1.73021060        1 
H      -3.18544242      -2.01953920      -0.29398465        1 
H      -3.33272608       1.71447193      -0.62069013        1 
H       3.83239585       1.36987097      -0.05240894        1 
H       3.02257002       1.30178488       1.51524739        1 
H       3.70977326      -0.96213016      -0.30723609        1 
H       3.00199662      -1.11860681       1.30305054        1 
H      -2.37867888      -3.58731872      -0.61468871        1 
H      -2.67875443      -3.04581775       1.06771184        1 
H      -2.80524037       1.06513369      -2.20624281        1 
H      -2.34366306       2.72229230      -1.70638584        1 
H       1.65333318       2.34029857      -0.68025683        1 
C       1.43617361      -2.07564631      -1.15679071        6 
H       2.29665755      -2.13574579      -1.82750025        1 
H       1.43602499      -2.95433287      -0.50865536        1 
H       0.52346387      -2.08921572      -1.74795414        1 
