32
Lattice="0.0 0.0 0.0 0.0 0.0 0.0 0.0 0.0 0.0" Properties=species:S:1:pos:R:3:Z:I:1 pbc="F F F"
C      -0.18149150       0.82741844       0.69945372        6 
C       0.68312174      -0.45519021       0.61618575        6 
C      -1.40025191       0.90115143      -0.20350844        6 
C       0.05962936      -1.82777689       0.44909829        6 
O      -2.29464102       1.77732296       0.32367627        8 
O      -1.56721705       0.34006659      -1.25306797        8 
O      -1.28171410      -1.81872832       0.44658079        8 
O       0.71355207      -2.84511948       0.48824899        8 
C      -1.92916191      -3.10237913       0.38041473        6 
C      -3.47503273       2.01520866      -0.46346431        6 
C       0.85204721       1.84157960       0.11074660        6 
C       2.11393226       1.93013147       1.00973035        6 
C       2.90599278       0.67052009       0.54855498        6 
C       1.85886657      -0.02128817      -0.35470729        6 
O       1.30846112       1.12596458      -1.03682669        8 
H      -0.47820156       1.07273859       1.71821760        1 
H       1.13769416      -0.57393685       1.60512032        1 
H      -1.67675522      -3.70425754       1.25503128        1 
H      -3.20964220       2.43098153      -1.43692683        1 
H       2.66522049       2.84961090       0.80865703        1 
H       1.86357696       1.91781010       2.07313694        1 
H       3.77252180       0.95051850      -0.05343665        1 
H       3.24471926       0.03864684       1.37163521        1 
H      -2.99466820      -2.88589494       0.35498173        1 
H      -1.62489993      -3.63264896      -0.52252820        1 
H      -4.06770101       2.72633534       0.10820074        1 
H      -4.02847529       1.08640342      -0.61161068        1 
H       0.42308360       2.79564660      -0.18887695        1 
C       2.36911717      -1.03002942      -1.35383938        6 
H       3.15397898      -0.57230664      -1.96005029        1 
H       2.77039115      -1.90649272      -0.84435282        1 
H       1.56398667      -1.35576640      -2.01533878        1 
