32
Lattice="0.0 0.0 0.0 0.0 0.0 0.0 0.0 0.0 0.0" Properties=species:S:1:pos:R:3:Z:I:1 pbc="F F F"
C      -0.26495638       0.81221762       0.56405878        6 
C       0.72315693      -0.39973574       0.61390835        6 
C      -1.67070379       0.57434311       0.05170161        6 
C       0.20598219      -1.68033495      -0.02968250        6 
O      -2.39242317       1.70978429       0.20975231        8 
O      -2.12429670      -0.42948832      -0.43375129        8 
O      -0.34984137      -2.46791849       0.92059391        8 
O       0.27640517      -1.98727365      -1.19019931        8 
C      -1.01195333      -3.64940751       0.43382605        6 
C      -3.75004294       1.66875308      -0.26999726        6 
C       0.54050309       1.83689466      -0.30245045        6 
C       1.59734404       2.50156585       0.59795024        6 
C       2.57040602       1.30735101       0.80980943        6 
C       1.96252224       0.21344873      -0.12318533        6 
O       1.32466706       1.00479030      -1.14994607        8 
H      -0.39706276       1.22176538       1.56770275        1 
H       0.95919327      -0.63889585       1.65059445        1 
H      -0.30493658      -4.30024229      -0.08310235        1 
H      -3.76904412       1.46988488      -1.34270108        1 
H       2.08363535       3.31805020       0.06135252        1 
H       1.17919029       2.90143903       1.52381656        1 
H       3.58227991       1.55169759       0.48391498        1 
H       2.62445772       0.97518214       1.84876222        1 
H      -1.41216517      -4.14364012       1.31671580        1 
H      -1.81384553      -3.36746647      -0.24977494        1 
H      -4.16254586       2.65198477      -0.05514394        1 
H      -4.31491324       0.89312602       0.24920685        1 
H      -0.07514785       2.50875225      -0.89502313        1 
C       2.97658290      -0.73810734      -0.72012353        6 
H       3.80081176      -0.16862759      -1.15519525        1 
H       3.38573356      -1.39025764       0.05752861        1 
H       2.52139905      -1.35399344      -1.49243402        1 
