32
Lattice="0.0 0.0 0.0 0.0 0.0 0.0 0.0 0.0 0.0" Properties=species:S:1:pos:R:3:Z:I:1 pbc="F F F"
C      -0.19403764       1.16239207       0.43104995        6 
C       0.44506018      -0.24420422       0.66705787        6 
C      -1.62348812       1.20555824      -0.08085228        6 
C      -0.27562827      -1.40184358      -0.00259771        6 
O      -2.46139254       0.68302197       0.84077976        8 
O      -1.98748916       1.72941975      -1.10216000        8 
O       0.28860280      -2.57350700       0.36777156        8 
O      -1.25961277      -1.34263084      -0.69549388        8 
C      -0.30821041      -3.76466082      -0.17737910        6 
C      -3.83545536       0.55606489       0.43447255        6 
C       0.83810740       1.84866598      -0.49561035        6 
C       1.97705502       2.39836776       0.37951228        6 
C       2.61206371       1.06720139       0.87055324        6 
C       1.86326114       0.00445092       0.00720114        6 
O       1.47733044       0.75065528      -1.16083036        8 
H      -0.23468491       1.67632775       1.39568819        1 
H       0.53997222      -0.49047616       1.72463735        1 
H      -0.26767437      -3.74733518      -1.26754697        1 
H      -4.24875756       1.52799733       0.16160424        1 
H       2.67731309       2.96836112      -0.23320585        1 
H       1.62693034       3.04196425       1.18918964        1 
H       3.68261712       1.02947677       0.66420466        1 
H       2.47467213       0.89350129       1.94036827        1 
H       0.28236507      -4.58942699       0.21543157        1 
H      -1.34808443      -3.85024953       0.14170151        1 
H      -4.35752516       0.14509887       1.29616895        1 
H      -3.90429757      -0.12355523      -0.41639085        1 
H       0.40050842       2.52182964      -1.22674089        1 
C       2.70861914      -1.18572343      -0.39177816        6 
H       3.64296939      -0.82476054      -0.82716805        1 
H       2.93979400      -1.80744465       0.47507325        1 
H       2.20292586      -1.80556529      -1.13164416        1 
