32
Lattice="0.0 0.0 0.0 0.0 0.0 0.0 0.0 0.0 0.0" Properties=species:S:1:pos:R:3:Z:I:1 pbc="F F F"
C       0.08480056       1.12061213       0.36463581        6 
C       0.54331443      -0.30449910       0.82441466        6 
C      -1.35629732       1.29069038      -0.07252092        6 
C      -0.30014880      -1.50073122       0.42444360        6 
O      -2.18927246       0.94133280       0.93424880        8 
O      -1.72996354       1.75589237      -1.11872191        8 
O      -1.15004060      -1.24091996      -0.58103345        8 
O      -0.13696829      -2.60541698       0.88789753        8 
C      -1.90997106      -2.34954735      -1.09256271        6 
C      -3.59557834       1.02116361       0.64620736        6 
C       1.13980059       1.48080777      -0.71157819        6 
C       2.39546923       1.99839685       0.01001666        6 
C       2.87833320       0.68895591       0.69536797        6 
C       1.93385426      -0.38122595       0.06681857        6 
O       1.57972777       0.20501958      -1.19710649        8 
H       0.18099657       1.79179310       1.22404830        1 
H       0.68149853      -0.36936232       1.90278533        1 
H      -2.56519868      -2.75029391      -0.31710197        1 
H      -3.87619306       2.03839649       0.36933332        1 
H       3.12514435       2.35596033      -0.71832816        1 
H       2.18514108       2.80893921       0.71051506        1 
H       3.91563522       0.46221633       0.44533402        1 
H       2.79674925       0.71611563       1.78403354        1 
H      -2.49036777      -1.94251337      -1.91731101        1 
H      -1.24280276      -3.13765561      -1.44357251        1 
H      -4.09822060       0.72066558       1.56303502        1 
H      -3.85163905       0.34329025      -0.17027460        1 
H       0.75554832       2.07873150      -1.53278687        1 
C       2.56040471      -1.74312085      -0.12853596        6 
H       3.51340932      -1.62916810      -0.64977382        1 
H       2.73826759      -2.22334147       0.83545857        1 
H       1.91998183      -2.39977190      -0.71711101        1 
