32
Lattice="0.0 0.0 0.0 0.0 0.0 0.0 0.0 0.0 0.0" Properties=species:S:1:pos:R:3:Z:I:1 pbc="F F F"
C      -0.31189845       1.10993564       0.36387332        6 
C       0.46048490      -0.21553726       0.67531097        6 
C      -1.75193591       1.00764804      -0.10479815        6 
C      -0.13605598      -1.44617188       0.00034497        6 
O      -2.52645908       0.51127877       0.88374629        8 
O      -2.18104250       1.43337913      -1.14699416        8 
O       0.65120723      -2.52675927       0.18041682        8 
O      -1.22350860      -1.51849280      -0.51537721        8 
C       0.14949617      -3.77059806      -0.34538255        6 
C      -3.89866253       0.26077628       0.53512232        6 
C       0.64833736       1.83639095      -0.61154590        6 
C       1.67584769       2.59908680       0.23707037        6 
C       2.41223621       1.40159737       0.89810945        6 
C       1.87060354       0.18111442       0.08265397        6 
O       1.45036139       0.77894111      -1.15993286        8 
H      -0.38185782       1.67252753       1.29939075        1 
H       0.51175590      -0.42985007       1.74416724        1 
H      -0.00753242      -3.69277665      -1.42197352        1 
H      -4.38630207       1.17779424       0.20136450        1 
H       2.34617132       3.16877706      -0.40863822        1 
H       1.21915545       3.28575567       0.95281038        1 
H       3.49427499       1.47775546       0.78603950        1 
H       2.19760463       1.30354016       1.96491544        1 
H       0.91672831      -4.50832996      -0.12098836        1 
H      -0.79249129      -4.03526229       0.13715297        1 
H      -4.36669343      -0.11414609       1.44300472        1 
H      -3.94467752      -0.48793672      -0.25747103        1 
H       0.15081656       2.37923125      -1.40977459        1 
C       2.91653412      -0.88321015      -0.17458961        6 
H       3.82406329      -0.39995108      -0.54395128        1 
H       3.15640433      -1.42030918       0.74545299        1 
H       2.58406427      -1.60766219      -0.91477374        1 
