32
Lattice="0.0 0.0 0.0 0.0 0.0 0.0 0.0 0.0 0.0" Properties=species:S:1:pos:R:3:Z:I:1 pbc="F F F"
C      -0.52063264       0.77172422       0.46806023        6 
C       0.71928250      -0.07441016       0.85645548        6 
C      -1.86558705       0.08485775       0.36429608        6 
C       0.74524924      -1.55362973       0.50909674        6 
O      -2.81083702       1.00573162       0.05282471        8 
O      -2.11470944      -1.08152376       0.52866621        8 
O       0.21625456      -1.83037364      -0.68827987        8 
O       1.32962479      -2.36700746       1.18917613        8 
C       0.22388400      -3.21107257      -1.08358731        6 
C      -4.15691970       0.50977993      -0.07409629        6 
C      -0.00330559       1.60689627      -0.75188009        6 
C       0.72774878       2.83460847      -0.17865963        6 
C       1.94084473       2.13067779       0.49785545        6 
C       1.80716119       0.66522023      -0.02123935        6 
O       1.08707066       0.83532877      -1.25754497        8 
H      -0.68811502       1.48257012       1.28447861        1 
H       0.94872907      -0.00779833       1.91830120        1 
H      -0.36108713      -3.80580343      -0.38027092        1 
H      -4.21554874      -0.23372692      -0.87051028        1 
H       1.05215728       3.48532758      -0.99229173        1 
H       0.11589663       3.42000460       0.51056072        1 
H       2.88950446       2.55934254       0.17191080        1 
H       1.91131736       2.18017781       1.58850456        1 
H      -0.23174359      -3.23070774      -2.07111993        1 
H       1.24442142      -3.59575391      -1.12284768        1 
H      -4.76467538       1.37891119      -0.31599861        1 
H      -4.48705538       0.05848668       0.86273571        1 
H      -0.73572591       1.78928689      -1.53310070        1 
C       3.11227720      -0.06108070      -0.25063612        6 
H       3.76484415       0.54473544      -0.88281840        1 
H       3.61556574      -0.24573014       0.70109701        1 
H       2.95168408      -1.02146395      -0.74225083        1 
