32
Lattice="0.0 0.0 0.0 0.0 0.0 0.0 0.0 0.0 0.0" Properties=species:S:1:pos:R:3:Z:I:1 pbc="F F F"
C       0.15192457       1.03577861       0.81566582        6 
C       0.72728959      -0.43004708       0.81861095        6 
C      -1.34005717       1.13973025       0.54102436        6 
C      -0.24978632      -1.57564150       0.65697532        6 
O      -1.62629502       1.47508028      -0.72562449        8 
O      -2.17673318       1.00239775       1.40329882        8 
O      -1.10987305      -1.39247960      -0.36143375        8 
O      -0.23374936      -2.56786859       1.34539898        8 
C      -2.08301750      -2.43235441      -0.56892077        6 
C      -3.02145674       1.55794275      -1.05737507        6 
C       1.06501015       1.69243535      -0.25113196        6 
C       2.48515970       1.87100069       0.33157284        6 
C       3.02403816       0.41358777       0.25752024        6 
C       1.80341106      -0.34106816      -0.33023293        6 
O       1.23941788       0.64326191      -1.21096732        8 
H       0.28579897       1.47681619       1.80394794        1 
H       1.21976618      -0.63252374       1.76821537        1 
H      -2.71821293      -2.53559838       0.31193944        1 
H      -3.51220886       0.60230117      -0.86633410        1 
H       3.07004812       2.54454637      -0.29626512        1 
H       2.47317044       2.27890987       1.34456471        1 
H       3.86609209       0.33624444      -0.43263315        1 
H       3.33939014       0.01446907       1.22316596        1 
H      -2.66691422      -2.11313084      -1.42954704        1 
H      -1.58836468      -3.38315875      -0.77216307        1 
H      -3.05254766       1.79963697      -2.11755076        1 
H      -3.51209791       2.33558362      -0.46978559        1 
H       0.63955458       2.56500721      -0.73849671        1 
C       2.11467733      -1.62051419      -1.07240815        6 
H       2.85985924      -1.42619752      -1.84648476        1 
H       2.51279758      -2.37311648      -0.38733364        1 
H       1.21901641      -2.02078743      -1.55001464        1 
