32
Lattice="0.0 0.0 0.0 0.0 0.0 0.0 0.0 0.0 0.0" Properties=species:S:1:pos:R:3:Z:I:1 pbc="F F F"
C      -0.80552434      -0.51800339      -0.50426409        6 
C       0.65880824      -0.03909992      -0.66788769        6 
C      -1.87354188       0.54025747      -0.32942144        6 
C       1.01180228       1.24224353       0.06857510        6 
O      -3.03707625      -0.03532242       0.05297230        8 
O      -1.74970197       1.72066757      -0.52990783        8 
O       1.99269704       1.89638527      -0.60150123        8 
O       0.53800377       1.63367234       1.10151653        8 
C       2.44643185       3.12207640      -0.00038404        6 
C      -4.15359429       0.85745431       0.23023497        6 
C      -0.67684456      -1.67997757       0.53153321        6 
C      -0.29622928      -2.94754028      -0.25434541        6 
C       1.12932123      -2.54733392      -0.73559265        6 
C       1.39094143      -1.23387057       0.06434489        6 
O       0.54384643      -1.39135777       1.21692762        8 
H      -1.09802644      -0.97213895      -1.45962868        1 
H       0.96438421       0.05300357      -1.70819384        1 
H       2.88956494       2.92805477       0.97817741        1 
H      -3.92640714       1.59892475       0.99725480        1 
H      -0.25898963      -3.80559854       0.41886698        1 
H      -0.98747017      -3.17790473      -1.06760612        1 
H       1.87207043      -3.30137006      -0.46983888        1 
H       1.19051102      -2.38690554      -1.81426636        1 
H       3.19131420       3.52344177      -0.68426161        1 
H       1.61372561       3.81713175       0.11522805        1 
H      -4.98298303       0.22548135       0.54022265        1 
H      -4.38751486       1.36734217      -0.70566778        1 
H      -1.49769520      -1.76574470       1.23689447        1 
C       2.82658932      -1.00835190       0.48249558        6 
H       3.19914899      -1.89217901       1.00466227        1 
H       3.45652487      -0.82587582      -0.39133960        1 
H       2.91174578      -0.15389353       1.15591073        1 
