32
Lattice="0.0 0.0 0.0 0.0 0.0 0.0 0.0 0.0 0.0" Properties=species:S:1:pos:R:3:Z:I:1 pbc="F F F"
C       0.34449389       0.88717839       0.78436102        6 
C       0.49403241      -0.67309116       0.60809845        6 
C      -0.98000310       1.53430349       0.43499134        6 
C      -0.72464018      -1.34900190      -0.00014825        6 
O      -1.38209747       1.23592122      -0.80911852        8 
O      -1.58075100       2.27632205       1.17691591        8 
O      -1.64109635      -1.55652979       0.97934961        8 
O      -0.91951258      -1.63531276      -1.15143134        8 
C      -2.90123110      -2.10948887       0.55880343        6 
C      -2.62574823       1.81054113      -1.24652891        6 
C       1.52255155       1.39347996      -0.11163564        6 
C       2.83107337       1.23461791       0.68499816        6 
C       2.98346325      -0.31265389       0.66008289        6 
C       1.79675029      -0.74920864      -0.25423010        6 
O       1.64154757       0.39356510      -1.11979195        8 
H       0.51320181       1.15681003       1.82572198        1 
H       0.64173210      -1.12566535       1.58921909        1 
H      -2.75747108      -3.09381044       0.11041815        1 
H      -3.43387324       1.53345993      -0.56752178        1 
H       3.65048264       1.72321885       0.15535148        1 
H       2.77213318       1.65601094       1.69005283        1 
H       3.92814497      -0.61390137       0.20528561        1 
H       2.93017315      -0.76723875       1.65142409        1 
H      -3.50184089      -2.18397064       1.46258717        1 
H      -3.38166993      -1.45285107      -0.16851251        1 
H      -2.79643740       1.39934761      -2.23859251        1 
H      -2.54969205       2.89835586      -1.28663020        1 
H       1.35724427       2.36607105      -0.57063095        1 
C       2.05107173      -2.01081958      -1.05051765        6 
H       3.00190504      -1.92178074      -1.58070778        1 
H       2.11449725      -2.87212473      -0.37862861        1 
H       1.25418385      -2.18525400      -1.76946815        1 
