32
Lattice="0.0 0.0 0.0 0.0 0.0 0.0 0.0 0.0 0.0" Properties=species:S:1:pos:R:3:Z:I:1 pbc="F F F"
C       0.16774452       1.11835510       0.78947495        6 
C       0.50437014      -0.40917437       0.71674758        6 
C      -1.22130108       1.55685984       0.35551312        6 
C      -0.71389754      -1.30966497       0.57912007        6 
O      -1.52226814       1.15611234      -0.89238211        8 
O      -1.93894362       2.25534689       1.02955670        8 
O      -0.39419266      -2.54539043       0.15127095        8 
O      -1.82782502      -1.00704918       0.93095965        8 
C      -1.47521850      -3.49644230       0.09571849        6 
C      -2.84333966       1.48054235      -1.35632988        6 
C       1.26076627       1.69281447      -0.15369210        6 
C       2.63745229       1.60206939       0.53975819        6 
C       2.94022786       0.08416423       0.39104146        6 
C       1.67159966      -0.42808876      -0.35075469        6 
O       1.34762526       0.70310192      -1.17963328        8 
H       0.27718807       1.49748824       1.80409576        1 
H       0.91954068      -0.72080807       1.68084291        1 
H      -2.25238064      -3.14807275      -0.58579185        1 
H      -3.58890084       0.99442386      -0.72487158        1 
H       3.37047862       2.20777036       0.00516773        1 
H       2.60772181       1.94366563       1.57629013        1 
H       3.81818830      -0.08331007      -0.23521884        1 
H       3.10500822      -0.42406187       1.34336139        1 
H      -1.02842823      -4.41821306      -0.27019085        1 
H      -1.90617916      -3.64306397       1.08708269        1 
H      -2.89353313       1.09926720      -2.37418476        1 
H      -3.00368675       2.55959199      -1.34214955        1 
H       1.01597255       2.65824675      -0.59164956        1 
C       1.89658456      -1.64537971      -1.22004846        6 
H       2.72238571      -1.43462391      -1.90360065        1 
H       2.15366898      -2.51553385      -0.61435332        1 
H       1.00980786      -1.88561528      -1.80441224        1 
