32
Lattice="0.0 0.0 0.0 0.0 0.0 0.0 0.0 0.0 0.0" Properties=species:S:1:pos:R:3:Z:I:1 pbc="F F F"
C       0.28805648       1.09033551       0.63526035        6 
C       0.46585028      -0.47686720       0.60918008        6 
C      -0.90262793       1.59031623      -0.16705536        6 
C      -0.72230455      -1.21685474       0.03428240        6 
O      -2.04888982       1.35631018       0.51747165        8 
O      -0.87086281       2.07824839      -1.26446804        8 
O      -1.36964900      -1.89791745       1.00721057        8 
O      -1.06209740      -1.23501315      -1.12275731        8 
C      -2.54350974      -2.61964651       0.59217717        6 
C      -3.26978416       1.62684323      -0.19766005        6 
C       1.62029685       1.53024281      -0.01418937        6 
C       2.78860918       1.26079331       0.96066657        6 
C       2.95099065      -0.27951812       0.81168765        6 
C       1.81342845      -0.61870416      -0.19015678        6 
O       1.80888996       0.54239204      -1.03204589        8 
H       0.17420508       1.43849786       1.66295942        1 
H       0.59548245      -0.83705506       1.62864723        1 
H      -2.28382375      -3.38096527      -0.14505353        1 
H      -3.33527293       2.68361099      -0.46037004        1 
H       3.68512577       1.78889528       0.63368173        1 
H       2.56420774       1.57782709       1.98170012        1 
H       3.91283312      -0.53393188       0.36270462        1 
H       2.86200875      -0.82509189       1.75315083        1 
H      -2.93658584      -3.07903100       1.49638679        1 
H      -3.27566860      -1.93664078       0.15844203        1 
H      -4.07218067       1.35244900       0.48400854        1 
H      -3.30856693       1.02496495      -1.10691148        1 
H       1.58797964       2.51703762      -0.46793075        1 
C       2.00684544      -1.87916422      -1.00248385        6 
H       2.97747563      -1.84810289      -1.50204012        1 
H       1.98423686      -2.75817342      -0.35159070        1 
H       1.22612521      -1.97572462      -1.75617093        1 
