32
Lattice="0.0 0.0 0.0 0.0 0.0 0.0 0.0 0.0 0.0" Properties=species:S:1:pos:R:3:Z:I:1 pbc="F F F"
C       0.03039953       1.14483545       0.47311574        6 
C       0.63513056      -0.26930290       0.79587058        6 
C      -1.31097434       1.19389024      -0.24112822        6 
C      -0.19066677      -1.53013214       0.64544729        6 
O      -2.31277714       1.27604731       0.66969252        8 
O      -1.49636077       1.15430684      -1.42804461        8 
O      -1.14999143      -1.45357875      -0.28640846        8 
O       0.04048444      -2.53187767       1.28327668        8 
C      -1.93373930      -2.63952180      -0.50774020        6 
C      -3.64696260       1.23940918       0.13475670        6 
C       1.14437084       1.71741392      -0.44408104        6 
C       2.40339547       2.03101875       0.39498180        6 
C       2.98840813       0.60378311       0.59991574        6 
C       1.93053380      -0.27151760      -0.12008138        6 
O       1.53742998       0.57353546      -1.20875296        8 
H      -0.07408800       1.71292104       1.39775825        1 
H       0.94739590      -0.29325316       1.83936706        1 
H      -2.48233955      -2.90638749       0.39702706        1 
H      -3.80884361       2.07019354      -0.55365901        1 
H       3.08760704       2.66687744      -0.16825657        1 
H       2.16341899       2.53866507       1.33180574        1 
H       3.95170446       0.49329498       0.09809666        1 
H       3.11987355       0.32919417       1.64804032        1 
H      -2.61706730      -2.38318279      -1.31416875        1 
H      -1.29164845      -3.47218143      -0.79760464        1 
H      -4.30886971       1.31928260       0.99448873        1 
H      -3.81502734       0.29929001      -0.39396760        1 
H       0.80954682       2.50354646      -1.11589824        1 
C       2.40855653      -1.61259258      -0.62617980        6 
H       3.29382772      -1.47442632      -1.25021169        1 
H       2.65967256      -2.27209864       0.20668628        1 
H       1.63689319      -2.09641833      -1.22812971        1 
