32
Lattice="0.0 0.0 0.0 0.0 0.0 0.0 0.0 0.0 0.0" Properties=species:S:1:pos:R:3:Z:I:1 pbc="F F F"
C      -0.04884157       0.88470669       0.60062174        6 
C       0.67150523      -0.49850800       0.61715866        6 
C      -1.29276647       0.94671933      -0.26311086        6 
C      -0.17301761      -1.71924842       0.29703048        6 
O      -2.23820299       1.71348253       0.32921965        8 
O      -1.42700650       0.45563391      -1.35501387        8 
O      -1.43988044      -1.54573297       0.73463372        8 
O       0.23556730      -2.76887249      -0.13141385        8 
C      -2.34079680      -2.64881426       0.52931420        6 
C      -3.45247881       1.89691749      -0.42126553        6 
C       1.05949939       1.75445407      -0.06372625        6 
C       2.25724614       1.90122361       0.90491884        6 
C       2.94961479       0.51830061       0.73002081        6 
C       1.96944337      -0.20895854      -0.23009539        6 
O       1.55517308       0.88459480      -1.07679570        8 
H      -0.30187724       1.23462762       1.59971036        1 
H       0.97780093      -0.70268795       1.64931452        1 
H      -1.96808706      -3.54577332       1.02573785        1 
H      -3.24458123       2.38270616      -1.37595585        1 
H       2.90673306       2.71756927       0.58610641        1 
H       1.93986151       2.10419114       1.93008353        1 
H       3.91953383       0.62355927       0.24074118        1 
H       3.09971940      -0.01806461       1.66905734        1 
H      -3.28702417      -2.33359127       0.96375265        1 
H      -2.45529805      -2.84469902      -0.53772389        1 
H      -4.08608151       2.52635445       0.19990546        1 
H      -3.93165550       0.93444804      -0.60821862        1 
H       0.69958361       2.67935405      -0.51068507        1 
C       2.57491143      -1.31216268      -1.06574216        6 
H       3.44158439      -0.91337418      -1.59852174        1 
H       2.89696912      -2.14218234      -0.43507631        1 
H       1.85835804      -1.69832528      -1.78863246        1 
