32
Lattice="0.0 0.0 0.0 0.0 0.0 0.0 0.0 0.0 0.0" Properties=species:S:1:pos:R:3:Z:I:1 pbc="F F F"
C      -0.17775076       1.12919276       0.62036158        6 
C       0.50053829      -0.28097694       0.62964057        6 
C      -1.47369214       1.24771963      -0.17226760        6 
C      -0.33097133      -1.45676585       0.16786600        6 
O      -2.53344396       1.12319936       0.66398460        8 
O      -1.57606072       1.39640353      -1.35935764        8 
O       0.09568520      -2.58133180       0.79497070        8 
O      -1.21357450      -1.45945738      -0.65136946        8 
C      -0.53975409      -3.80716899       0.38782993        6 
C      -3.82284504       1.06826384       0.02556777        6 
C       0.93971133       1.95291371      -0.07627770        6 
C       2.16336311       2.08418055       0.86196351        6 
C       2.81536301       0.67964497       0.70405254        6 
C       1.80188509      -0.02477626      -0.23384851        6 
O       1.39945364       1.05125996      -1.08745994        8 
H      -0.37392610       1.46141516       1.63950626        1 
H       0.80455186      -0.52359856       1.64790734        1 
H      -0.37100064      -3.98857445      -0.67494615        1 
H      -4.02248034       1.99310376      -0.51813510        1 
H       2.82907840       2.87482759       0.51361414        1 
H       1.87570978       2.31430427       1.89025992        1 
H       3.78269700       0.74699535       0.20258743        1 
H       2.95745843       0.15192762       1.64888328        1 
H      -0.07668049      -4.58744776       0.98785652        1 
H      -1.61313880      -3.76232154       0.57747531        1 
H      -4.54142669       0.93657436       0.83195323        1 
H      -3.85871175       0.22651266      -0.66744071        1 
H       0.59419080       2.87285790      -0.54085745        1 
C       2.33364781      -1.18418349      -1.04417170        6 
H       3.19695723      -0.85676264      -1.62727455        1 
H       2.64542096      -1.99991085      -0.38830558        1 
H       1.57595050      -1.55720521      -1.73709936        1 
