32
Lattice="0.0 0.0 0.0 0.0 0.0 0.0 0.0 0.0 0.0" Properties=species:S:1:pos:R:3:Z:I:1 pbc="F F F"
C      -0.30968187       0.97154940       0.39623046        6 
C       0.66368686      -0.16981447       0.86912302        6 
C      -1.69512745       0.56621594      -0.06104336        6 
C       0.10245585      -1.57478326       0.69302803        6 
O      -2.61489106       1.41412632       0.45837601        8 
O      -1.98322984      -0.33333455      -0.80996136        8 
O       0.24747628      -2.06679498      -0.54007987        8 
O      -0.39937544      -2.18583555       1.60997286        8 
C      -0.41151734      -3.31569383      -0.81079233        6 
C      -3.98071763       1.17507995       0.06723469        6 
C       0.53669475       1.63775893      -0.74358954        6 
C       1.55289764       2.58092980      -0.07364229        6 
C       2.49566013       1.53794006       0.58911609        6 
C       1.94116555       0.18744279       0.03632530        6 
O       1.36317608       0.58304642      -1.22454415        8 
H      -0.45245313       1.68441340       1.20633462        1 
H       0.84644305      -0.07424408       1.93889032        1 
H      -1.49024105      -3.18622255      -0.71556762        1 
H      -4.09200523       1.27966681      -1.01320255        1 
H       2.07620186       3.16244809      -0.83454066        1 
H       1.09414933       3.27393589       0.63391385        1 
H       3.53044410       1.67287161       0.27122356        1 
H       2.47530955       1.57202261       1.68031270        1 
H      -0.14809010      -3.56224731      -1.83691395        1 
H      -0.07028307      -4.09188801      -0.12426584        1 
H      -4.56697801       1.92842653       0.58850661        1 
H      -4.29033220       0.17207775       0.36435998        1 
H      -0.04585966       2.05581595      -1.56187290        1 
C       2.98890064      -0.88897679      -0.14450092        6 
H       3.81715702      -0.49946648      -0.74044621        1 
H       3.38323610      -1.19419984       0.82906864        1 
H       2.57616944      -1.76131418      -0.64712037        1 
