32
Lattice="0.0 0.0 0.0 0.0 0.0 0.0 0.0 0.0 0.0" Properties=species:S:1:pos:R:3:Z:I:1 pbc="F F F"
C      -0.40272995       0.78003943       0.57511824        6 
C       0.75538595      -0.27137677       0.61437218        6 
C      -1.77153319       0.30861869       0.12645591        6 
C       0.44235273      -1.60129035      -0.05984686        6 
O      -2.62260988       1.36018976       0.09314234        8 
O      -2.10393671      -0.81445882      -0.15374687        8 
O       0.22445119      -2.55065930       0.87928150        8 
O       0.41107821      -1.81650251      -1.24304580        8 
C      -0.21402875      -3.82600856       0.37752975        6 
C      -3.96969340       1.06713260      -0.32612388        6 
C       0.22666872       1.91710775      -0.29216525        6 
C       1.18365839       2.72988591       0.59925977        6 
C       2.32822199       1.69755452       0.79529122        6 
C       1.88130803       0.52816681      -0.13349229        6 
O       1.12131441       1.21411491      -1.15044022        8 
H      -0.57496859       1.16274255       1.58548849        1 
H       1.03657210      -0.48710618       1.64423635        1 
H       0.53687503      -4.25799605      -0.28595941        1 
H      -3.97028160       0.64364671      -1.33140111        1 
H       1.53358508       3.61070091       0.05878931        1 
H       0.72271376       3.06182869       1.53159565        1 
H       3.28689533       2.09505452       0.45803370        1 
H       2.44833162       1.37513375       1.83174729        1 
H      -0.35446276      -4.45218192       1.25620499        1 
H      -1.15230904      -3.70475998      -0.16582555        1 
H      -4.49139884       2.02140168      -0.31032052        1 
H      -4.43820969       0.36148028       0.36162162        1 
H      -0.48911161       2.48707343      -0.87800190        1 
C       3.01584222      -0.26621799      -0.74142662        6 
H       3.71806363       0.41349067      -1.22905327        1 
H       3.55462135      -0.81048093       0.04007803        1 
H       2.64424499      -0.97715845      -1.47678835        1 
