32
Lattice="0.0 0.0 0.0 0.0 0.0 0.0 0.0 0.0 0.0" Properties=species:S:1:pos:R:3:Z:I:1 pbc="F F F"
C      -0.60366005       0.97191872      -0.84843465        6 
C      -0.33493636      -0.55491099      -0.72000020        6 
C       0.36527176       1.92002650      -0.15249475        6 
C       1.13462953      -0.92529592      -0.82498496        6 
O       1.26626178       1.29988101       0.62423556        8 
O       0.25124872       3.12127794      -0.21474083        8 
O       1.49176165      -1.97001355      -0.05936271        8 
O       1.88518833      -0.38404942      -1.60059219        8 
C       2.85939604      -2.40436141      -0.18376269        6 
C       2.14874335       2.14874913       1.37875451        6 
C      -1.92846928       1.05888739      -0.04224921        6 
C      -3.04230716       0.21765679      -0.71039093        6 
C      -2.68160386      -1.21358116      -0.21774038        6 
C      -1.31126260      -0.96359516       0.46118327        6 
O      -1.57778505       0.29668416       1.11965412        8 
H      -0.70933299       1.30728303      -1.87934455        1 
H      -0.73067094      -1.02050261      -1.63052025        1 
H       3.53943610      -1.59507282       0.08500117        1 
H       2.74622548       2.76559030       0.70620713        1 
H      -4.02560413       0.53194334      -0.35835301        1 
H      -3.03060429       0.31509447      -1.79835476        1 
H      -3.39455608      -1.56223706       0.53198692        1 
H      -2.63615391      -1.95526690      -1.01815497        1 
H       2.96050219      -3.23786081       0.50791178        1 
H       3.06831833      -2.72387849      -1.20580793        1 
H       2.78481024       1.47307831       1.94624229        1 
H       1.57546046       2.79131219       2.04850757        1 
H      -2.20521927       2.07098543       0.24164305        1 
C      -0.89228473      -1.99108499       1.48634921        6 
H      -1.69220325      -2.09515732       2.22345235        1 
H      -0.71466238      -2.96032332       1.01813897        1 
H       0.02106154      -1.68601653       1.99446441        1 
