32
Lattice="0.0 0.0 0.0 0.0 0.0 0.0 0.0 0.0 0.0" Properties=species:S:1:pos:R:3:Z:I:1 pbc="F F F"
C       0.19725318       1.20777037       0.46770745        6 
C       0.59384401      -0.27178938       0.84972057        6 
C      -1.14799362       1.39055754      -0.21980562        6 
C      -0.52948060      -1.28351575       0.73717766        6 
O      -2.14881782       0.97069697       0.58071062        8 
O      -1.32413139       1.88191656      -1.30528354        8 
O      -0.84541827      -1.56187925      -0.54340879        8 
O      -1.12546577      -1.73695133       1.68330654        8 
C      -1.96588056      -2.44080247      -0.74504974        6 
C      -3.48066316       1.06581489       0.04428341        6 
C       1.36360728       1.58335481      -0.47483376        6 
C       2.65676791       1.76818672       0.34528150        6 
C       3.02802501       0.28954578       0.65070045        6 
C       1.86924896      -0.47966756      -0.04381728        6 
O       1.59825124       0.35808283      -1.18038398        8 
H       0.17117351       1.82435741       1.36884926        1 
H       0.86854339      -0.30390398       1.90363187        1 
H      -2.85220634      -2.04651207      -0.24594238        1 
H      -3.75230525       2.10966991      -0.12065269        1 
H       3.42210411       2.25279046      -0.26235859        1 
H       2.50602845       2.37371389       1.24177637        1 
H       3.97499255       0.01507286       0.18310221        1 
H       3.10083516       0.06802392       1.71706473        1 
H      -2.11232298      -2.47888600      -1.82218234        1 
H      -1.74810151      -3.43526089      -0.35166290        1 
H      -4.12633177       0.61520908       0.79468801        1 
H      -3.54913202       0.52565070      -0.90126052        1 
H       1.12142404       2.37099851      -1.18227115        1 
C       2.20474000      -1.89199196      -0.46997438        6 
H       3.12268773      -1.88885723      -1.06158425        1 
H       2.36507073      -2.52538498       0.40730054        1 
H       1.40381307      -2.31881907      -1.07190588        1 
