32
Lattice="0.0 0.0 0.0 0.0 0.0 0.0 0.0 0.0 0.0" Properties=species:S:1:pos:R:3:Z:I:1 pbc="F F F"
C       0.07801799       0.97666679       0.84907696        6 
C       0.55425253      -0.50665623       0.64955278        6 
C      -1.39714207       1.17504932       0.54033011        6 
C      -0.48369426      -1.41409097       0.02379558        6 
O      -1.62062876       2.01175046      -0.48131121        8 
O      -2.27266339       0.63798106       1.17804441        8 
O      -0.58899382      -2.56807195       0.71595272        8 
O      -1.10081612      -1.18791767      -0.98791212        8 
C      -1.53322962      -3.52479529       0.19822049        6 
C      -2.99368047       2.14438853      -0.89752081        6 
C       1.09861189       1.74192023      -0.02937948        6 
C       2.44991766       1.79556630       0.71400429        6 
C       2.93009041       0.32437111       0.55438745        6 
C       1.78926731      -0.29227445      -0.30251941        6 
O       1.36403954       0.82508920      -1.09765184        8 
H       0.18106430       1.24488723       1.90292730        1 
H       0.86286082      -0.95358914       1.59236297        1 
H      -1.24951219      -3.83423688      -0.80914411        1 
H      -3.37164096       1.17562007      -1.22603925        1 
H       3.12672915       2.48932983       0.21315720        1 
H       2.34870186       2.11250751       1.75417427        1 
H       3.87171993       0.27022707       0.00553074        1 
H       3.06360771      -0.19513460       1.50536008        1 
H      -1.49561015      -4.36853530       0.88354560        1 
H      -2.53358708      -3.09091997       0.17413434        1 
H      -2.97704429       2.85078467      -1.72426309        1 
H      -3.60884896       2.51898356      -0.07838432        1 
H       0.73622311       2.68192065      -0.43359315        1 
C       2.18743549      -1.46182070      -1.17509468        6 
H       3.03949791      -1.18438025      -1.79950844        1 
H       2.47720577      -2.31545869      -0.55641967        1 
H       1.36631689      -1.76004410      -1.82830612        1 
