32
Lattice="0.0 0.0 0.0 0.0 0.0 0.0 0.0 0.0 0.0" Properties=species:S:1:pos:R:3:Z:I:1 pbc="F F F"
C      -0.50035346       0.92931166       0.63528492        6 
C       0.57482940      -0.20246129       0.59831902        6 
C      -1.75961713       0.73400156      -0.19836970        6 
C       0.15036698      -1.59377847       0.17854588        6 
O      -2.84609778       0.71233926       0.62012932        8 
O      -1.83039058       0.60954443      -1.38932193        8 
O       0.89288316      -2.50367211       0.86441957        8 
O      -0.66172037      -1.90832915      -0.65105254        8 
C       0.67615248      -3.88273056       0.51433867        6 
C      -4.10885443       0.49161962      -0.03520924        6 
C       0.34019438       2.08419668       0.00571457        6 
C       1.49858040       2.48177072       0.95362782        6 
C       2.53219569       1.35583115       0.65787757        6 
C       1.71749160       0.44486225      -0.29248035        6 
O       1.00352759       1.41620280      -1.06762509        8 
H      -0.80071203       1.14439160       1.65948603        1 
H       0.96591921      -0.32593878       1.60810311        1 
H       0.89648302      -4.04893741      -0.54142122        1 
H      -4.31996814       1.29635144      -0.74150711        1 
H       1.88912976       3.46504412       0.68854670        1 
H       1.18371990       2.51685583       1.99893501        1 
H       3.40061458       1.74697571       0.12420078        1 
H       2.88393667       0.83596070       1.55048532        1 
H       1.35763659      -4.45221195       1.14272242        1 
H      -0.35782864      -4.16965965       0.71215099        1 
H      -4.85110780       0.47608012       0.76022724        1 
H      -4.09504225      -0.45882158      -0.57066288        1 
H      -0.25140413       2.90884903      -0.38587113        1 
C       2.49641492      -0.48951781      -1.18720737        6 
H       3.21211629       0.07888108      -1.78492470        1 
H       3.04357363      -1.22298194      -0.59052366        1 
H       1.82284319      -1.01669566      -1.86579388        1 
