32
Lattice="0.0 0.0 0.0 0.0 0.0 0.0 0.0 0.0 0.0" Properties=species:S:1:pos:R:3:Z:I:1 pbc="F F F"
C      -0.39329187       0.78531033       0.53644557        6 
C       0.74353087      -0.28456156       0.62262313        6 
C      -1.76858399       0.34062076       0.08474913        6 
C       0.43266190      -1.61420948      -0.05421041        6 
O      -2.62803028       1.38214049       0.19964372        8 
O      -2.09990291      -0.74051260      -0.32800198        8 
O       0.14421431      -2.54638382       0.88473846        8 
O       0.43868867      -1.84100312      -1.23482983        8 
C      -0.30539297      -3.81540385       0.37615335        6 
C      -3.98170996       1.13205554      -0.22402275        6 
C       0.26708488       1.88436345      -0.36275998        6 
C       1.20107716       2.72533017       0.52596836        6 
C       2.32017888       1.68455668       0.81137816        6 
C       1.90255841       0.48991696      -0.09990364        6 
O       1.18413003       1.14742484      -1.16469144        8 
H      -0.56199295       1.20716155       1.53060393        1 
H       0.98793672      -0.49457048       1.66305593        1 
H       0.45988767      -4.27067153      -0.25438455        1 
H      -4.00678581       0.86584676      -1.28183181        1 
H       1.58542126       3.57371787      -0.04255478        1 
H       0.71188062       3.10740770       1.42387884        1 
H       3.30080045       2.05799828       0.51237748        1 
H       2.38103924       1.39524609       1.86282774        1 
H      -0.49474311      -4.43036770       1.25360116        1 
H      -1.21846459      -3.67660733      -0.20468671        1 
H      -4.51612149       2.06351651      -0.05058422        1 
H      -4.42100735       0.32219215       0.36025194        1 
H      -0.42869208       2.43438206      -0.99109602        1 
C       3.05646032      -0.32502565      -0.64033695        6 
H       3.77734621       0.33760889      -1.12424461        1 
H       3.56563258      -0.84341814       0.17772900        1 
H       2.71185945      -1.05917442      -1.36624556        1 
