32
Lattice="0.0 0.0 0.0 0.0 0.0 0.0 0.0 0.0 0.0" Properties=species:S:1:pos:R:3:Z:I:1 pbc="F F F"
C       0.07294189       1.10720348       0.33433388        6 
C       0.50778798      -0.29844417       0.83648661        6 
C      -1.38079372       1.37265104       0.00940053        6 
C      -0.32148157      -1.49213925       0.40247165        6 
O      -2.20461890       0.67756294       0.82030698        8 
O      -1.76131635       2.23613587      -0.74318282        8 
O      -1.01515803      -1.27460644      -0.72745427        8 
O      -0.25398178      -2.57230069       0.94234623        8 
C      -1.73549041      -2.39742157      -1.26211514        6 
C      -3.61283688       0.92016642       0.65420701        6 
C       1.10998473       1.42036078      -0.77756808        6 
C       2.36515702       1.98623214      -0.09158093        6 
C       2.83623312       0.72616642       0.68974563        6 
C       1.91383845      -0.39031320       0.10669089        6 
O       1.56777815       0.12666917      -1.19133645        8 
H       0.23646810       1.80733047       1.16335262        1 
H       0.61126911      -0.35551619       1.91848986        1 
H      -2.47603199      -2.75198157      -0.54299852        1 
H      -3.84511930       1.97263120       0.82342854        1 
H       3.09825083       2.28136807      -0.84411361        1 
H       2.15901671       2.84912287       0.54475037        1 
H       3.88201495       0.49214031       0.48639619        1 
H       2.72206718       0.82361385       1.77164657        1 
H      -2.21935958      -2.02747147      -2.16323548        1 
H      -1.04956995      -3.21122711      -1.50177330        1 
H      -4.10412926       0.29355402       1.39528397        1 
H      -3.92745301       0.64084559      -0.35286984        1 
H       0.71434504       1.97466867      -1.62374313        1 
C       2.55872201      -1.75264748      -0.00616191        6 
H       3.51240368      -1.65989690      -0.53016499        1 
H       2.73980297      -2.17023305       0.98648576        1 
H       1.92884149      -2.45320434      -0.55436017        1 
