32
Lattice="0.0 0.0 0.0 0.0 0.0 0.0 0.0 0.0 0.0" Properties=species:S:1:pos:R:3:Z:I:1 pbc="F F F"
C       0.04739548       1.13136577       0.63399252        6 
C       0.46027830      -0.38141860       0.61081435        6 
C      -1.19236495       1.48636214      -0.17402908        6 
C      -0.56822910      -1.36572500       0.09860549        6 
O      -2.27886735       1.49528755       0.63981170        8 
O      -1.24943649       1.67449969      -1.35799266        8 
O      -0.58809197      -2.46191547       0.89805348        8 
O      -1.24728135      -1.26496368      -0.89099765        8 
C      -1.46775746      -3.52380324       0.48425156        6 
C      -3.54651069       1.65917180      -0.02411274        6 
C       1.30824597       1.75549977      -0.02593793        6 
C       2.51923160       1.63453511       0.92796989        6 
C       2.90782053       0.13977761       0.73256566        6 
C       1.79519667      -0.34080238      -0.23490894        6 
O       1.61050970       0.81407923      -1.06009575        8 
H      -0.10494771       1.46709182       1.65938796        1 
H       0.69276078      -0.69878061       1.62642448        1 
H      -1.18116359      -3.89370407      -0.50160017        1 
H      -3.59647793       2.62906116      -0.52150851        1 
H       3.32228664       2.30122287       0.61118208        1 
H       2.26367448       1.88300815       1.96049584        1 
H       3.87808169       0.04406249       0.24160970        1 
H       2.93813935      -0.43055718       1.66272088        1 
H      -1.35394591      -4.30337489       1.23436622        1 
H      -2.49996910      -3.17234738       0.44833726        1 
H      -4.29715699       1.59275847       0.76072208        1 
H      -3.68426962       0.86797761      -0.76255429        1 
H       1.14352540       2.73585785      -0.46590045        1 
C       2.10855666      -1.56208616      -1.06866789        6 
H       3.04428395      -1.41117439      -1.61089235        1 
H       2.21546096      -2.44225394      -0.42919308        1 
H       1.31459936      -1.74616823      -1.79438429        1 
