32
Lattice="0.0 0.0 0.0 0.0 0.0 0.0 0.0 0.0 0.0" Properties=species:S:1:pos:R:3:Z:I:1 pbc="F F F"
C      -0.65105526       0.64428575       0.48926499        6 
C       0.72223855      -0.07308251       0.63262218        6 
C      -1.86905102      -0.17751856       0.12497273        6 
C       0.85283368      -1.41321870      -0.07966785        6 
O      -2.97415132       0.59743863       0.26547032        8 
O      -1.91213172      -1.31684893      -0.25891096        8 
O       1.12806734      -2.38695487       0.82377738        8 
O       0.75344026      -1.61533952      -1.25953756        8 
C       1.21358697      -3.72003664       0.28747432        6 
C      -4.22382017      -0.01507642      -0.10476582        6 
C      -0.30658003       1.83338459      -0.47150688        6 
C       0.29603463       2.95879485       0.38942941        6 
C       1.63726617       2.28974467       0.80758507        6 
C       1.64664091       0.99473179      -0.06175557        6 
O       0.83203352       1.36824670      -1.19108337        8 
H      -0.91130095       1.07105173       1.46140081        1 
H       0.98239408      -0.21765393       1.67974643        1 
H       2.03104153      -3.79280784      -0.43186077        1 
H      -4.19268457      -0.34631670      -1.14379662        1 
H       0.47066544       3.84214544      -0.22714935        1 
H      -0.33658225       3.24571575       1.23174536        1 
H       2.49417271       2.91744387       0.55865698        1 
H       1.69028437       2.06355262       1.87495669        1 
H       1.39828706      -4.36659610       1.14287684        1 
H       0.27683310      -3.98595724      -0.20420748        1 
H      -4.97673521       0.75844177       0.02976188        1 
H      -4.43480029      -0.87112671       0.53822965        1 
H      -1.10028752       2.11441287      -1.15878253        1 
C       3.01542036       0.52893508      -0.50509027        6 
H       3.54970170       1.35143655      -0.98542993        1 
H       3.59811144       0.19883225       0.35971334        1 
H       2.93648140      -0.29478068      -1.21431161        1 
