32
Lattice="0.0 0.0 0.0 0.0 0.0 0.0 0.0 0.0 0.0" Properties=species:S:1:pos:R:3:Z:I:1 pbc="F F F"
C       0.15836749       1.18446198       0.49972241        6 
C       0.40267469      -0.34753823       0.66576656        6 
C      -1.20206005       1.61975289      -0.01172253        6 
C      -0.60247215      -1.23464109      -0.03687736        6 
O      -2.18511109       1.03050753       0.70215832        8 
O      -1.39433791       2.46645530      -0.84642293        8 
O      -0.72128720      -2.41338304       0.61779509        8 
O      -1.19413462      -0.98106459      -1.05548850        8 
C      -1.58632310      -3.38765130       0.00635689        6 
C      -3.53056940       1.31074462       0.27402708        6 
C       1.34992595       1.61240744      -0.39168198        6 
C       2.60299924       1.73879462       0.49490711        6 
C       2.86160150       0.24289701       0.83589863        6 
C       1.80487856      -0.47834483      -0.05103861        6 
O       1.63813513       0.42973904      -1.14961544        8 
H       0.23535777       1.65598018       1.48495659        1 
H       0.46086401      -0.65310000       1.70886705        1 
H      -1.21756314      -3.65739911      -0.98479281        1 
H      -3.73203968       2.38208455       0.31150540        1 
H       3.42670488       2.15819470      -0.08451215        1 
H       2.44730822       2.36747527       1.37414207        1 
H       3.86671582      -0.06948634       0.54725404        1 
H       2.73192712       0.01183067       1.89546741        1 
H      -1.56698180      -4.24980297       0.66930535        1 
H      -2.59972449      -2.99411131      -0.08451971        1 
H      -4.17396919       0.77439605       0.96826893        1 
H      -3.67747614       0.94718996      -0.74414424        1 
H       1.13278015       2.43986926      -1.06075754        1 
C       2.19866628      -1.85266907      -0.54477903        6 
H       3.16528009      -1.79613002      -1.04972257        1 
H       2.28039622      -2.55155802       0.29088289        1 
H       1.46662693      -2.24142555      -1.25493598        1 
