32
Lattice="0.0 0.0 0.0 0.0 0.0 0.0 0.0 0.0 0.0" Properties=species:S:1:pos:R:3:Z:I:1 pbc="F F F"
C      -0.56154668       0.71201554       0.48812623        6 
C       0.72912153      -0.14994438       0.62323828        6 
C      -1.85465744       0.02836580       0.09841703        6 
C       0.69993581      -1.50217709      -0.07821751        6 
O      -2.87565477       0.90767914       0.25570268        8 
O      -2.01110892      -1.09236494      -0.31088256        8 
O       0.75717444      -2.49432642       0.84429402        8 
O       0.64563019      -1.70133108      -1.26177181        8 
C       0.65713863      -3.83176287       0.32150527        6 
C      -4.18184159       0.43247529      -0.12112356        6 
C      -0.08718701       1.87165274      -0.45277931        6 
C       0.63934823       2.90783136       0.42391621        6 
C       1.90336749       2.08963923       0.81757080        6 
C       1.76142446       0.81295908      -0.06863230        6 
O       0.98733067       1.29311997      -1.18626767        8 
H      -0.78376993       1.14698980       1.46575602        1 
H       0.97332599      -0.32146004       1.67020264        1 
H       1.48444724      -4.04098079      -0.35867997        1 
H      -4.19334733       0.14235018      -1.17278478        1 
H       0.90548037       3.77844137      -0.17765971        1 
H       0.04628167       3.24411923       1.27625025        1 
H       2.82137310       2.62122837       0.56319271        1 
H       1.94385963       1.84581194       1.88147081        1 
H       0.70001431      -4.48673266       1.18932549        1 
H      -0.28704967      -3.95540148      -0.21086186        1 
H      -4.85557961       1.26834414       0.05407471        1 
H      -4.46649531      -0.42478740       0.49089903        1 
H      -0.84645392       2.25494616      -1.12966615        1 
C       3.06722824       0.20505423      -0.53145022        6 
H       3.68657881       0.97238831      -1.00103366        1 
H       3.61579000      -0.20404564       0.32183398        1 
H       2.89156459      -0.58963281      -1.25581055        1 
