32
Lattice="0.0 0.0 0.0 0.0 0.0 0.0 0.0 0.0 0.0" Properties=species:S:1:pos:R:3:Z:I:1 pbc="F F F"
C      -0.00380047       0.93239575       0.43864466        6 
C       0.57861494      -0.51402643       0.64155882        6 
C      -1.37846153       1.04524330      -0.18359751        6 
C      -0.25314184      -1.61264723      -0.00412022        6 
O      -2.15455959       1.87510118       0.55802137        8 
O      -1.75633577       0.52953483      -1.20377477        8 
O      -1.16430350      -2.06461778       0.89676929        8 
O      -0.19657902      -2.00711812      -1.13644820        8 
C      -2.11867079      -3.01739432       0.39048900        6 
C      -3.48012314       2.11343047       0.04856504        6 
C       1.11586447       1.58558385      -0.44194491        6 
C       2.25597929       2.01681163       0.49779796        6 
C       2.81335917       0.62479386       0.90750686        6 
C       1.99449842      -0.34249828      -0.00286784        6 
O       1.68817220       0.48731012      -1.14222763        8 
H      -0.05978096       1.43617895       1.40215543        1 
H       0.64362108      -0.73797038       1.70610993        1 
H      -1.61314891      -3.92511811       0.05705653        1 
H      -3.43306684       2.56052169      -0.94560159        1 
H       2.99681255       2.59236189      -0.05966132        1 
H       1.91556404       2.62189649       1.34020289        1 
H       3.87717696       0.53596058       0.68298482        1 
H       2.67759752       0.40194758       1.96829418        1 
H      -2.78278228      -3.23467849       1.22443594        1 
H      -2.67150696      -2.58661466      -0.44553641        1 
H      -3.94415035       2.79722275       0.75595420        1 
H      -4.04053343       1.17879374      -0.00629683        1 
H       0.76083229       2.33237852      -1.14905419        1 
C       2.73643935      -1.59371622      -0.41971820        6 
H       3.69787691      -1.31798952      -0.85841166        1 
H       2.92963744      -2.22556131       0.45267850        1 
H       2.16574407      -2.16288657      -1.15070552        1 
