32
Lattice="0.0 0.0 0.0 0.0 0.0 0.0 0.0 0.0 0.0" Properties=species:S:1:pos:R:3:Z:I:1 pbc="F F F"
C       0.18719896       1.09786002       0.52394839        6 
C       0.50991994      -0.42119152       0.80309091        6 
C      -1.27319368       1.50055169       0.48848356        6 
C      -0.66682784      -1.33483814       0.43966204        6 
O      -1.74913708       1.59005410      -0.77110193        8 
O      -1.94387855       1.67624534       1.47289797        8 
O      -0.36075861      -2.35092182      -0.38233185        8 
O      -1.77944123      -1.17018866       0.87732465        8 
C      -1.45081529      -3.22089341      -0.74289729        6 
C      -3.16268007       1.84394948      -0.88482050        6 
C       1.09817159       1.38817124      -0.70952155        6 
C       2.46561518       1.80128804      -0.14737608        6 
C       2.87041293       0.46657656       0.53501870        6 
C       1.82008773      -0.54753524      -0.04316053        6 
O       1.38771358       0.09601709      -1.26162971        8 
H       0.56856288       1.65611758       1.38119547        1 
H       0.68120011      -0.57402880       1.87107391        1 
H      -2.21851810      -2.66121280      -1.27866028        1 
H      -3.72337626       1.04594771      -0.39605319        1 
H       3.14569582       2.05383596      -0.96269683        1 
H       2.41392701       2.64829476       0.53992132        1 
H       3.87974635       0.15912705       0.26091594        1 
H       2.82677957       0.51663028       1.62566407        1 
H      -1.01084198      -3.97979002      -1.38632664        1 
H      -1.88963365      -3.67387186       0.14686729        1 
H      -3.36826924       1.86593384      -1.95283035        1 
H      -3.41830811       2.79888476      -0.42341485        1 
H       0.65723832       2.02306019      -1.47212847        1 
C       2.43016159      -1.90907712      -0.31245123        6 
H       3.37627873      -1.77622737      -0.84233057        1 
H       2.63944160      -2.41718667       0.63339824        1 
H       1.77616829      -2.53836861      -0.90642154        1 
