32
Lattice="0.0 0.0 0.0 0.0 0.0 0.0 0.0 0.0 0.0" Properties=species:S:1:pos:R:3:Z:I:1 pbc="F F F"
C       0.17589943       1.15557658       0.63260624        6 
C       0.43981577      -0.39137977       0.62381459        6 
C      -1.06301528       1.60037201      -0.12938486        6 
C      -0.67045939      -1.25712370       0.07312546        6 
O      -2.16008872       1.43352643       0.64843574        8 
O      -1.10026166       2.00389658      -1.25995747        8 
O      -0.84681820      -2.34266717       0.86432423        8 
O      -1.29593653      -1.07413907      -0.94085265        8 
C      -1.83580045      -3.28999458       0.42055745        6 
C      -3.42549965       1.62832486      -0.01132604        6 
C       1.46422345       1.65989947      -0.06216048        6 
C       2.67387388       1.47262190       0.88059326        6 
C       2.92436345      -0.05732649       0.74693194        6 
C       1.77831904      -0.47499990      -0.21221224        6 
O       1.68112558       0.66601732      -1.07091052        8 
H       0.08195005       1.51013907       1.65999230        1 
H       0.62520900      -0.73678360       1.63973740        1 
H      -1.55897381      -3.70426831      -0.55022131        1 
H      -3.50646440       2.64535548      -0.39743414        1 
H       3.52813933       2.04858125       0.52256906        1 
H       2.45955482       1.78944550       1.90378314        1 
H       3.88527335      -0.26130764       0.27059787        1 
H       2.89644075      -0.59330840       1.69748414        1 
H      -1.85184781      -4.06934389       1.17933311        1 
H      -2.81242557      -2.81072293       0.34012625        1 
H      -4.18119908       1.44681258       0.75022743        1 
H      -3.52494108       0.91777328      -0.83337853        1 
H       1.36542028       2.63527762      -0.53070717        1 
C       2.00252777      -1.73964766      -1.00943133        6 
H       2.94705898      -1.67139768      -1.55307443        1 
H       2.04670194      -2.60689514      -0.34525368        1 
H       1.19844889      -1.88738945      -1.73216966        1 
