32
Lattice="0.0 0.0 0.0 0.0 0.0 0.0 0.0 0.0 0.0" Properties=species:S:1:pos:R:3:Z:I:1 pbc="F F F"
C      -0.55098125       0.78542131       0.50486042        6 
C       0.74013543      -0.01864694       0.86155371        6 
C      -1.82336245       0.02878502       0.18322450        6 
C       0.68801473      -1.52598353       0.64633417        6 
O      -2.86484101       0.89666734       0.22123766        8 
O      -1.95395504      -1.13383620      -0.10192739        8 
O       0.65903787      -1.87937359      -0.64394590        8 
O       0.74596747      -2.31521765       1.56134884        8 
C       0.47028427      -3.27828213      -0.91229140        6 
C      -4.15225728       0.35084263      -0.12500005        6 
C      -0.04504354       1.70332460      -0.66128330        6 
C       0.70540780       2.89156666      -0.03257629        6 
C       1.96814055       2.16346586       0.50746206        6 
C       1.78467486       0.71961776      -0.05264513        6 
O       1.01149410       0.94879757      -1.24861275        8 
H      -0.81935413       1.42111716       1.35079925        1 
H       0.98303127       0.10428551       1.91597856        1 
H      -0.49796755      -3.59702610      -0.52357690        1 
H      -4.14084650      -0.03379837      -1.14617083        1 
H       0.96615477       3.61463235      -0.80730901        1 
H       0.12716932       3.40636497       0.73694234        1 
H       2.88462465       2.60342013       0.11125443        1 
H       2.03917520       2.17454374       1.59712926        1 
H       0.49469265      -3.36933768      -1.99601327        1 
H       1.26324183      -3.87265542      -0.45555915        1 
H      -4.85165304       1.17893594      -0.03495208        1 
H      -4.42004705      -0.45594553       0.55870414        1 
H      -0.79624692       1.94550804      -1.40936056        1 
C       3.07504583      -0.00748205      -0.35841673        6 
H       3.70605092       0.61195319      -0.99939920        1 
H       3.61995944      -0.20974338       0.56803437        1 
H       2.88325282      -0.95159251      -0.86613769        1 
