32
Lattice="0.0 0.0 0.0 0.0 0.0 0.0 0.0 0.0 0.0" Properties=species:S:1:pos:R:3:Z:I:1 pbc="F F F"
C      -0.45912250       0.83393501       0.69444187        6 
C       0.72128365      -0.18819526       0.63808718        6 
C      -1.82718436       0.24269793       0.40869036        6 
C       0.38693556      -1.49703169      -0.05261263        6 
O      -2.62075146       1.09246124      -0.26733315        8 
O      -2.18472005      -0.84408302       0.79292910        8 
O       0.80452467      -2.54349072       0.69314824        8 
O      -0.11850684      -1.61473346      -1.14002995        8 
C       0.54659821      -3.84649210       0.13808339        6 
C      -3.94497319       0.61069436      -0.57185379        6 
C       0.06288426       1.97794246      -0.21814085        6 
C       1.08067191       2.81200546       0.58523470        6 
C       2.26682370       1.81060775       0.67240796        6 
C       1.76085947       0.63193031      -0.20964221        6 
O       0.90284308       1.29574626      -1.15526679        8 
H      -0.55336655       1.19925160       1.72316675        1 
H       1.10669313      -0.41647093       1.62971714        1 
H       1.05867902      -3.96366788      -0.81852610        1 
H      -3.88373391      -0.29457958      -1.17680305        1 
H       1.35701463       3.70404320       0.02122815        1 
H       0.70205627       3.12925272       1.55933578        1 
H       3.17872482       2.23104947       0.24501911        1 
H       2.49176828       1.49219531       1.69245462        1 
H       0.93145374      -4.55469653       0.86869947        1 
H      -0.52536550      -3.98648932      -0.00768901        1 
H      -4.42310430       1.41392111      -1.12786361        1 
H      -4.49385850       0.39625800       0.34629625        1 
H      -0.70915261       2.53023335      -0.74409381        1 
C       2.83764148      -0.16091341      -0.91680104        6 
H       3.48669094       0.51506827      -1.47753976        1 
H       3.44760313      -0.70339571      -0.18960070        1 
H       2.39765407      -0.87542982      -1.61308147        1 
