32
Lattice="0.0 0.0 0.0 0.0 0.0 0.0 0.0 0.0 0.0" Properties=species:S:1:pos:R:3:Z:I:1 pbc="F F F"
C       0.32224643       0.89276673       0.78823616        6 
C       0.49358600      -0.65826718       0.60026493        6 
C      -0.92572990       1.57648059       0.26747245        6 
C      -0.76093819      -1.38222806       0.13964928        6 
O      -1.44393431       0.97584152      -0.81377950        8 
O      -1.35899692       2.60208369       0.73853980        8 
O      -1.69279022      -1.29533498       1.12292611        8 
O      -0.94875003      -1.97350364      -0.89037929        8 
C      -2.97452142      -1.87613224       0.82750893        6 
C      -2.59734860       1.59262831      -1.41192108        6 
C       1.56474350       1.40722971      -0.00631053        6 
C       2.83906572       1.12005525       0.81366826        6 
C       2.98476133      -0.41093170       0.59309681        6 
C       1.76369910      -0.73040661      -0.31737987        6 
O       1.65318481       0.48568784      -1.09096623        8 
H       0.38770846       1.17675028       1.83724121        1 
H       0.71837451      -1.09128979       1.57783235        1 
H      -2.87553150      -2.94411283       0.62813750        1 
H      -3.41887479       1.63812111      -0.69486151        1 
H       3.68634681       1.66615486       0.39630114        1 
H       2.73436355       1.40644765       1.86193813        1 
H       3.90567170      -0.64905256       0.05835966        1 
H       2.97531663      -0.98868592       1.51943657        1 
H      -3.58265646      -1.70612048       1.71336316        1 
H      -3.41849402      -1.38935823      -0.04275730        1 
H      -2.85464627       0.95745273      -2.25634535        1 
H      -2.35717963       2.60238649      -1.74738632        1 
H       1.46524915       2.42279623      -0.38443661        1 
C       1.95361088      -1.92792056      -1.22197670        6 
H       2.90522199      -1.83116957      -1.75005903        1 
H       1.98034739      -2.84753639      -0.63084632        1 
H       1.14358349      -2.01075459      -1.94170483        1 
