32
Lattice="0.0 0.0 0.0 0.0 0.0 0.0 0.0 0.0 0.0" Properties=species:S:1:pos:R:3:Z:I:1 pbc="F F F"
C       0.17534782       1.16191432       0.42867500        6 
C       0.54699280      -0.30123094       0.83956007        6 
C      -1.23819608       1.46585736      -0.03135935        6 
C      -0.47895631      -1.37949467       0.54739895        6 
O      -2.14799115       0.74430406       0.65144934        8 
O      -1.52853356       2.34553228      -0.80400622        8 
O      -0.87365268      -1.38119121      -0.73980511        8 
O      -0.86863279      -2.17665404       1.36659165        8 
C      -1.85488213      -2.36679525      -1.10005824        6 
C      -3.53148851       0.99852152       0.34759182        6 
C       1.27342683       1.49526991      -0.61376547        6 
C       2.58101150       1.81740267       0.13388031        6 
C       2.96842838       0.40297415       0.65447629        6 
C       1.87134583      -0.49248749       0.00861115        6 
O       1.56366099       0.22187902      -1.20177853        8 
H       0.28737287       1.80516204       1.30872456        1 
H       0.74170522      -0.37582064       1.90797069        1 
H      -2.76273953      -2.23382982      -0.50866272        1 
H      -3.78454950       2.03907532       0.55569376        1 
H       3.32667448       2.20031954      -0.56446035        1 
H       2.44863149       2.55549765       0.92727527        1 
H       3.95267701       0.09838903       0.29459855        1 
H       2.97359733       0.32782943       1.74389742        1 
H      -2.05544402      -2.20268489      -2.15654378        1 
H      -1.46738493      -3.37359468      -0.93494231        1 
H      -4.09549034       0.32885667       0.99294575        1 
H      -3.73413061       0.78307364      -0.70282956        1 
H       0.96057879       2.20014919      -1.37893335        1 
C       2.28858286      -1.91579966      -0.28750474        6 
H       3.20348870      -1.91675650      -0.88360765        1 
H       2.47898187      -2.45682683       0.64283095        1 
H       1.51451991      -2.44279328      -0.84684577        1 
