32
Lattice="0.0 0.0 0.0 0.0 0.0 0.0 0.0 0.0 0.0" Properties=species:S:1:pos:R:3:Z:I:1 pbc="F F F"
C       0.33788053       0.89055707       0.77528364        6 
C       0.50572100      -0.66746903       0.61168344        6 
C      -0.96884515       1.53829074       0.36781273        6 
C      -0.72510991      -1.36871218       0.05785932        6 
O      -1.42129339       1.08634356      -0.81170157        8 
O      -1.50992919       2.41059397       1.00615358        8 
O      -1.67273737      -1.40454342       1.02885349        8 
O      -0.89734526      -1.81884916      -1.04349208        8 
C      -2.94464797      -1.95935933       0.64970535        6 
C      -2.64732020       1.65659649      -1.30080068        6 
C       1.52699041       1.40082037      -0.10439981        6 
C       2.83013303       1.23304433       0.69905349        6 
C       2.99186430      -0.31202792       0.64738813        6 
C       1.80029166      -0.74265066      -0.26289729        6 
O       1.64452708       0.40838762      -1.12026182        8 
H       0.47931857       1.18083780       1.81495918        1 
H       0.67770666      -1.10309737       1.59767626        1 
H      -2.83586232      -3.00573882       0.36022689        1 
H      -3.44957531       1.51210018      -0.57527224        1 
H       3.65161852       1.73685596       0.18720955        1 
H       2.75879660       1.63561422       1.71100929        1 
H       3.93359732      -0.59879831       0.17729806        1 
H       2.95218038      -0.78392851       1.63118611        1 
H      -3.57532882      -1.87001053       1.53150586        1 
H      -3.36912617      -1.39974477      -0.18550231        1 
H      -2.86041054       1.12495010      -2.22529152        1 
H      -2.52266075       2.72393234      -1.48958427        1 
H       1.36823365       2.37856211      -0.55509728        1 
C       2.05652103      -1.99641570      -1.07084429        6 
H       3.00989174      -1.90079514      -1.59552992        1 
H       2.11702247      -2.86440413      -0.40752106        1 
H       1.26136833      -2.16706547      -1.79173922        1 
