32
Lattice="0.0 0.0 0.0 0.0 0.0 0.0 0.0 0.0 0.0" Properties=species:S:1:pos:R:3:Z:I:1 pbc="F F F"
C      -0.26057783       0.82228807      -0.95524424        6 
C      -0.39694249      -0.66285182      -0.54255485        6 
C       0.71786960       1.69558073      -0.16590125        6 
C       0.83622649      -1.51978129      -0.34406522        6 
O       1.45218860       1.02188509       0.73198442        8 
O       0.71769180       2.90155621      -0.24788105        8 
O       1.90106090      -1.01108008      -0.99582387        8 
O       0.82459416      -2.63317557       0.12519574        8 
C       3.08558143      -1.82601320      -1.00836220        6 
C       2.24312767       1.82183579       1.62905723        6 
C      -1.65802052       1.31201831      -0.45780771        6 
C      -2.82633659       0.54812377      -1.12891301        6 
C      -2.86327722      -0.76605258      -0.29300319        6 
C      -1.56127824      -0.62431970       0.52686203        6 
O      -1.63317413       0.77972961       0.87587317        8 
H      -0.09180345       0.96988974      -2.02176369        1 
H      -0.81250578      -1.17123537      -1.42279826        1 
H       2.87994607      -2.79767527      -1.46019849        1 
H       2.94850668       2.43897663       1.07098992        1 
H      -3.75420329       1.11327550      -1.03439766        1 
H      -2.64917737       0.37711413      -2.19359849        1 
H      -3.71895749      -0.77993866       0.38500521        1 
H      -2.88785313      -1.67398410      -0.89895091        1 
H       3.81110399      -1.27169841      -1.59968165        1 
H       3.45368330      -1.97384014       0.00815454        1 
H       2.76985064       1.11082882       2.26171510        1 
H       1.59619577       2.46455656       2.22810779        1 
H      -1.75394427       2.39317655      -0.42826693        1 
C      -1.43256903      -1.46811148       1.77022381        6 
H      -2.28683669      -1.27664655       2.42389938        1 
H      -1.40263190      -2.52745936       1.51560029        1 
H      -0.51610585      -1.22535256       2.31056273        1 
