32
Lattice="0.0 0.0 0.0 0.0 0.0 0.0 0.0 0.0 0.0" Properties=species:S:1:pos:R:3:Z:I:1 pbc="F F F"
C       0.09462668       1.13720468       0.37667259        6 
C       0.54608936      -0.29193370       0.83194762        6 
C      -1.34126101       1.30401578      -0.07923283        6 
C      -0.31943664      -1.47838416       0.45541268        6 
O      -2.18651451       0.93881165       0.91162382        8 
O      -1.70266390       1.77449152      -1.12721306        8 
O      -1.11387951      -1.24076249      -0.60015943        8 
O      -0.21788742      -2.56181025       0.98226672        8 
C      -1.89558419      -2.34550552      -1.08586432        6 
C      -3.58919964       1.01305403       0.60468928        6 
C       1.15853321       1.49695307      -0.68996445        6 
C       2.42399276       1.98076211       0.03926844        6 
C       2.89865202       0.64913107       0.68769658        6 
C       1.92408173      -0.38971990       0.05614418        6 
O       1.57363721       0.22107554      -1.19651972        8 
H       0.18118467       1.80590974       1.23888353        1 
H       0.69949939      -0.35413113       1.90816428        1 
H      -2.58158776      -2.69492172      -0.31219335        1 
H      -3.87268338       2.03207227       0.33743396        1 
H       3.15370525       2.35090195      -0.68262414        1 
H       2.22570143       2.77422279       0.76235847        1 
H       3.92647684       0.41055960       0.41036916        1 
H       2.84070200       0.65388651       1.77814547        1 
H      -2.44234891      -1.95537268      -1.94121498        1 
H      -1.24512923      -3.16742641      -1.38779445        1 
H      -4.10253717       0.69699121       1.51025266        1 
H      -3.82904198       0.34470862      -0.22446053        1 
H       0.78661180       2.11458764      -1.50227077        1 
C       2.50870446      -1.76666004      -0.16263891        6 
H       3.45680927      -1.67628320      -0.69695416        1 
H       2.68511275      -2.26364889       0.79313483        1 
H       1.83992666      -2.39538508      -0.75109020        1 
