32
Lattice="0.0 0.0 0.0 0.0 0.0 0.0 0.0 0.0 0.0" Properties=species:S:1:pos:R:3:Z:I:1 pbc="F F F"
C       0.31623753       0.88783791       0.80241612        6 
C       0.48736158      -0.65872184       0.59517395        6 
C      -0.90636848       1.58362624       0.23679545        6 
C      -0.77589822      -1.38887788       0.17139059        6 
O      -1.43994134       0.94646370      -0.81590401        8 
O      -1.30453693       2.64770471       0.64963839        8 
O      -1.70605294      -1.24350236       1.14907950        8 
O      -0.96499999      -2.04178410      -0.82073662        8 
C      -2.99043177      -1.83372591       0.88628442        6 
C      -2.56300045       1.57586813      -1.45742620        6 
C       1.57892709       1.40609942       0.04660282        6 
C       2.84255935       1.06346234       0.86306819        6 
C       2.97850941      -0.45600971       0.56668533        6 
C       1.74555768      -0.72266002      -0.34243985        6 
O       1.65411096       0.52301286      -1.07174111        8 
H       0.34744446       1.16257420       1.85551795        1 
H       0.73508785      -1.09718314       1.56536135        1 
H      -2.89507831      -2.90971195       0.73398866        1 
H      -3.39249552       1.67931141      -0.75578701        1 
H       3.69883179       1.62291206       0.48386233        1 
H       2.72887781       1.29632263       1.92369489        1 
H       3.89171734      -0.67189168       0.00961309        1 
H       2.97631292      -1.07747444       1.46422165        1 
H      -3.59400991      -1.62246384       1.76634893        1 
H      -3.43729415      -1.38465008      -0.00266986        1 
H      -2.83035304       0.91441905      -2.27827117        1 
H      -2.28319339       2.56146501      -1.83152286        1 
H       1.50235971       2.43687144      -0.29340642        1 
C       1.90474467      -1.88752254      -1.29354159        6 
H       2.84848501      -1.78051632      -1.83381860        1 
H       1.92912065      -2.82919285      -0.73876532        1 
H       1.08187309      -1.93523719      -2.00196878        1 
