32
Lattice="0.0 0.0 0.0 0.0 0.0 0.0 0.0 0.0 0.0" Properties=species:S:1:pos:R:3:Z:I:1 pbc="F F F"
C      -0.25978252       0.80944697      -0.86882374        6 
C      -0.49747766      -0.72683552      -0.54940335        6 
C       1.09473146       1.33580330      -0.42031577        6 
C       0.73776873      -1.40071455       0.02230963        6 
O       1.07207541       1.82825978       0.82798158        8 
O       2.08881699       1.30136467      -1.10742331        8 
O       1.57248433      -1.71445017      -0.98945529        8 
O       0.96580498      -1.66054509       1.17780474        8 
C       2.85343233      -2.25532058      -0.62033943        6 
C       2.33174292       2.28004540       1.35653721        6 
C      -1.47975450       1.42937706      -0.13778671        6 
C      -2.75452052       1.13277124      -0.95615089        6 
C      -2.97076051      -0.37016544      -0.62414629        6 
C      -1.78322129      -0.66445962       0.33848178        6 
O      -1.63303064       0.59803495       1.01487740        8 
H      -0.29301291       0.97114335      -1.94575620        1 
H      -0.70359330      -1.24194096      -1.48833866        1 
H       2.73164517      -3.18414363      -0.06095078        1 
H       3.04144767       1.45229620       1.39542694        1 
H      -3.58422833       1.74281952      -0.59653889        1 
H      -2.62567233       1.33035317      -2.02241313        1 
H      -3.91207612      -0.53003650      -0.09581210        1 
H      -2.96471775      -1.01639443      -1.50415026        1 
H       3.37163623      -2.43497582      -1.55927341        1 
H       3.40488526      -1.53438806      -0.01523494        1 
H       2.11033366       2.63957552       2.35856884        1 
H       2.74211812       3.07988070       0.73825974        1 
H      -1.34370378       2.46261865       0.17013441        1 
C      -2.02823717      -1.78837199       1.32077090        6 
H      -2.96749114      -1.61038699       1.84967348        1 
H      -2.11098026      -2.74091548       0.78914602        1 
H      -1.21774051      -1.86308829       2.04231974        1 
