32
Lattice="0.0 0.0 0.0 0.0 0.0 0.0 0.0 0.0 0.0" Properties=species:S:1:pos:R:3:Z:I:1 pbc="F F F"
C       0.09955253       1.16489223       0.42809691        6 
C       0.57623386      -0.28025735       0.82882240        6 
C      -1.30013094       1.28970943      -0.14483398        6 
C      -0.32199461      -1.46820008       0.55320336        6 
O      -2.21306796       1.13896573       0.84407514        8 
O      -1.58950612       1.49089140      -1.29488689        8 
O      -1.10180036      -1.30566370      -0.52532007        8 
O      -0.27321455      -2.49151490       1.19537719        8 
C      -1.93234213      -2.41789581      -0.90047543        6 
C      -3.59073130       1.13260205       0.43189585        6 
C       1.19332743       1.57703753      -0.59036541        6 
C       2.47409913       1.96316362       0.17240619        6 
C       2.95158057       0.56519698       0.65982794        6 
C       1.91284891      -0.38045148      -0.00746396        6 
O       1.55958644       0.33299193      -1.20136858        8 
H       0.12519712       1.79623374       1.31864420        1 
H       0.79560774      -0.33369752       1.89420218        1 
H      -2.61268044      -2.67694130      -0.08760703        1 
H      -3.85172448       2.07374321      -0.05414832        1 
H       3.19573937       2.41073670      -0.51259081        1 
H       2.29173887       2.67151121       0.98298050        1 
H       3.95281196       0.33282136       0.29367689        1 
H       2.96203272       0.46489216       1.74696651        1 
H      -2.48283883      -2.08055542      -1.77575564        1 
H      -1.31768694      -3.28560413      -1.14454090        1 
H      -4.16808841       0.99956509       1.34430870        1 
H      -3.77155787       0.30873708      -0.26089613        1 
H       0.85221754       2.26899032      -1.35530158        1 
C       2.41260661      -1.76743269      -0.34167242        6 
H       3.33492382      -1.69270920      -0.92147210        1 
H       2.61164051      -2.33621647       0.56882837        1 
H       1.67923538      -2.31540570      -0.93555773        1 
