32
Lattice="0.0 0.0 0.0 0.0 0.0 0.0 0.0 0.0 0.0" Properties=species:S:1:pos:R:3:Z:I:1 pbc="F F F"
C       0.07650109       1.02346852       0.36480085        6 
C       0.56451352      -0.43105481       0.72634731        6 
C      -1.34485028       1.23224556      -0.11775791        6 
C      -0.25453299      -1.62444076       0.23781991        6 
O      -2.19842464       1.23386761       0.93060570        8 
O      -1.67987722       1.47297653      -1.25018774        8 
O      -1.51837426      -1.30942140      -0.09059399        8 
O       0.17372331      -2.75027398       0.16165599        8 
C      -2.33546191      -2.38161734      -0.59688235        6 
C      -3.58920869       1.38461872       0.60627339        6 
C       1.15622254       1.48021257      -0.65534766        6 
C       2.35183942       2.01791433       0.14415659        6 
C       2.83370434       0.70209959       0.81359013        6 
C       1.99581098      -0.38663379       0.06437720        6 
O       1.67458038       0.25483740      -1.18530729        8 
H       0.14785354       1.62160862       1.27627639        1 
H       0.63665970      -0.55305602       1.81009653        1 
H      -2.42585162      -3.17422103       0.14680013        1 
H      -3.76818303       2.33684495       0.10435837        1 
H       3.10686881       2.41802863      -0.53457398        1 
H       2.07793473       2.79922636       0.85630617        1 
H       3.89845160       0.53210532       0.65101623        1 
H       2.65721821       0.67949265       1.89128871        1 
H      -3.30393344      -1.93254909      -0.80415808        1 
H      -1.89942551      -2.78825407      -1.50993195        1 
H      -4.11702933       1.34765321       1.55692460        1 
H      -3.91643661       0.57155499      -0.04415871        1 
H       0.77493050       2.09804730      -1.46316840        1 
C       2.76090533      -1.66979774      -0.18023929        6 
H       3.73385228      -1.41781280      -0.60905383        1 
H       2.92053100      -2.20687139       0.75714777        1 
H       2.23490269      -2.33277322      -0.86166768        1 
