32
Lattice="0.0 0.0 0.0 0.0 0.0 0.0 0.0 0.0 0.0" Properties=species:S:1:pos:R:3:Z:I:1 pbc="F F F"
C       0.20934306       1.16358980       0.53510452        6 
C       0.56996454      -0.33778308       0.83573694        6 
C      -1.16660521       1.60046072       0.05507487        6 
C      -0.55398341      -1.35193432       0.70344894        6 
O      -2.12147275       0.66820953       0.16358267        8 
O      -1.37947607       2.73057729      -0.31747972        8 
O      -0.78353727      -1.73337961      -0.56536363        8 
O      -1.17669935      -1.77187454       1.64940285        8 
C      -1.88586632      -2.63230318      -0.76364923        6 
C      -3.45691368       1.06614267      -0.20089168        6 
C       1.30843438       1.53748031      -0.50471269        6 
C       2.65092204       1.72836710       0.22187776        6 
C       3.00074895       0.25504293       0.56910287        6 
C       1.82572271      -0.52633260      -0.09124716        6 
O       1.49972652       0.31231583      -1.21813554        8 
H       0.34767271       1.75157415       1.44676727        1 
H       0.86478203      -0.42044183       1.88174125        1 
H      -2.81820482      -2.15805373      -0.45300762        1 
H      -3.77038821       1.92841943       0.38836608        1 
H       3.38622293       2.16055536      -0.45866317        1 
H       2.57334725       2.38034001       1.09384294        1 
H       3.94405365      -0.04781817       0.11244391        1 
H       3.07218770       0.06640337       1.64196469        1 
H      -1.90077093      -2.84206415      -1.83105566        1 
H      -1.74461497      -3.55051268      -0.19149110        1 
H      -4.08258223       0.20400986       0.01836359        1 
H      -3.49938863       1.31666427      -1.26167420        1 
H       1.01564216       2.33081730      -1.18679837        1 
C       2.18726905      -1.92787631      -0.53416144        6 
H       3.10399890      -1.89871798      -1.12706561        1 
H       2.36527878      -2.56482496       0.33738090        1 
H       1.39447793      -2.36819196      -1.13464927        1 
