32
Lattice="0.0 0.0 0.0 0.0 0.0 0.0 0.0 0.0 0.0" Properties=species:S:1:pos:R:3:Z:I:1 pbc="F F F"
C      -0.79611297       0.66622990       0.64201069        6 
C       0.63636399       0.06580869       0.64899477        6 
C      -1.80208530      -0.08150528      -0.21823130        6 
C       0.69473625      -1.44269749       0.49790066        6 
O      -3.00981649      -0.09795646       0.39416652        8 
O      -1.60383108      -0.54439686      -1.31061136        8 
O       1.95941389      -1.87493049       0.31977706        8 
O      -0.24587275      -2.18771749       0.61809589        8 
C       2.13120434      -3.30199694       0.22093896        6 
C      -4.06284159      -0.76555022      -0.32490031        6 
C      -0.49537436       2.03136628      -0.04296458        6 
C       0.42205702       2.89445095       0.86018226        6 
C       1.81540708       2.26371433       0.56485736        6 
C       1.42032945       1.05126463      -0.31654707        6 
O       0.36580830       1.63296125      -1.10804819        8 
H      -1.20711232       0.78263934       1.64333038        1 
H       1.05128140       0.20750822       1.65287644        1 
H       1.54731879      -3.69642874      -0.61151744        1 
H      -4.25757234      -0.26398606      -1.27449840        1 
H       0.38251977       3.94170849       0.55786338        1 
H       0.13573680       2.83792384       1.91285110        1 
H       2.43972943       2.94393363      -0.01799894        1 
H       2.36791557       1.97795617       1.46205528        1 
H       3.19483637      -3.45327985       0.05032428        1 
H       1.81587463      -3.78929891       1.14476638        1 
H      -4.93564249      -0.71193094       0.32245780        1 
H      -3.78816089      -1.80371136      -0.51669431        1 
H      -1.37167773       2.53797627      -0.44282944        1 
C       2.49775469       0.50660035      -1.22362600        6 
H       2.86937170       1.31684475      -1.85535557        1 
H       3.32488310       0.09936495      -0.64184672        1 
H       2.10407349      -0.28282617      -1.86428821        1 
