32
Lattice="0.0 0.0 0.0 0.0 0.0 0.0 0.0 0.0 0.0" Properties=species:S:1:pos:R:3:Z:I:1 pbc="F F F"
C       0.08563242       0.92330367       0.81032987        6 
C       0.55299383      -0.56464793       0.61598823        6 
C      -1.37435052       1.15383080       0.45417610        6 
C      -0.48867608      -1.45459571      -0.03286031        6 
O      -1.55659186       2.16900997      -0.40295218        8 
O      -2.27740296       0.50559132       0.92817235        8 
O      -0.78784267      -2.49914014       0.76605935        8 
O      -0.95982645      -1.30006186      -1.13259525        8 
C      -1.79513387      -3.39979735       0.26743118        6 
C      -2.91582930       2.40294023      -0.82251866        6 
C       1.14811962       1.68635422      -0.01982167        6 
C       2.47237965       1.71250882       0.77190225        6 
C       2.93806330       0.23761572       0.61019139        6 
C       1.81882621      -0.35532364      -0.29163556        6 
O       1.43588667       0.77866438      -1.08860563        8 
H       0.15335019       1.18329324       1.87019095        1 
H       0.82525451      -1.01438092       1.56886952        1 
H      -1.48472122      -3.83198808      -0.68511650        1 
H      -3.30475484       1.51791844      -1.32730125        1 
H       3.17566339       2.40373755       0.30519593        1 
H       2.33805921       2.01767091       1.81190118        1 
H       3.89682371       0.17731736       0.09265994        1 
H       3.03282091      -0.29441242       1.55889933        1 
H      -1.89394557      -4.17257659       1.02650925        1 
H      -2.73800004      -2.86764689       0.13424096        1 
H      -2.86426406       3.24547894      -1.50822657        1 
H      -3.54605157       2.63950419       0.03580005        1 
H       0.81207030       2.63655267      -0.42225465        1 
C       2.23979365      -1.51860630      -1.16191310        6 
H       3.11438367      -1.23914955      -1.75347140        1 
H       2.50755000      -2.37755619      -0.53992238        1 
H       1.43948744      -1.80901431      -1.84255356        1 
