32
Lattice="0.0 0.0 0.0 0.0 0.0 0.0 0.0 0.0 0.0" Properties=species:S:1:pos:R:3:Z:I:1 pbc="F F F"
C       0.06224510       1.11304410       0.39382501        6 
C       0.58142835      -0.31884213       0.78978302        6 
C      -1.35145052       1.23742804      -0.14317994        6 
C      -0.23612852      -1.55211589       0.44934141        6 
O      -2.23934726       1.13617214       0.87323144        8 
O      -1.66604374       1.44024165      -1.28714984        8 
O      -1.27381785      -1.31788022      -0.36516054        8 
O       0.07280818      -2.65865523       0.82634144        8 
C      -2.03033775      -2.46222886      -0.79949564        6 
C      -3.62670043       1.15659278       0.49862564        6 
C       1.13488084       1.56768107      -0.63053692        6 
C       2.37726235       2.04644331       0.14030140        6 
C       2.90360439       0.69276657       0.69239691        6 
C       1.95752017      -0.33472794       0.00279543        6 
O       1.58534423       0.33813474      -1.21105665        8 
H       0.09067469       1.73935203       1.28825345        1 
H       0.76540297      -0.38505037       1.86235577        1 
H      -2.49646056      -2.95551435       0.05483781        1 
H      -3.87345428       2.08536288      -0.01779731        1 
H       3.09375737       2.49840302      -0.54733029        1 
H       2.14227097       2.77672802       0.91728015        1 
H       3.93437564       0.50831507       0.38667068        1 
H       2.86225468       0.62098785       1.78112350        1 
H      -2.78251346      -2.06664575      -1.47825286        1 
H      -1.38161407      -3.17023213      -1.31619387        1 
H      -4.18255437       1.07663334       1.43044629        1 
H      -3.85179334       0.31200615      -0.15525137        1 
H       0.75610004       2.22270262      -1.40991904        1 
C       2.59414897      -1.66989316      -0.30958377        6 
H       3.52906008      -1.49971463      -0.84836104        1 
H       2.80810919      -2.22131037       0.60757870        1 
H       1.94447100      -2.28797195      -0.92912072        1 
