32
Lattice="0.0 0.0 0.0 0.0 0.0 0.0 0.0 0.0 0.0" Properties=species:S:1:pos:R:3:Z:I:1 pbc="F F F"
C      -0.59591353       0.72009997       0.81983372        6 
C       0.79320218       0.00766504       0.73278705        6 
C      -1.71562266      -0.00186170       0.07039833        6 
C       0.69719114      -1.51084871       0.78265607        6 
O      -2.70204503       0.85800864      -0.26033079        8 
O      -1.78836974      -1.18739720      -0.13259700        8 
O       1.10302862      -2.13787808      -0.33060577        8 
O       0.27941858      -2.08076763       1.76155661        8 
C       0.89433078      -3.56282328      -0.35561271        6 
C      -3.85217828       0.28015058      -0.90667331        6 
C      -0.24555843       2.03078081       0.07337825        6 
C       0.86089529       2.81829325       0.81308988        6 
C       2.13670000       2.05827342       0.35430261        6 
C       1.51967286       0.84722242      -0.39012612        6 
O       0.42268417       1.49402462      -1.07954131        8 
H      -0.92666469       0.86515211       1.85010131        1 
H       1.30109241       0.22229005       1.67682262        1 
H      -0.16809601      -3.78062706      -0.24133406        1 
H      -3.56153809      -0.19376136      -1.84497019        1 
H       0.87373154       3.86060473       0.49252803        1 
H       0.71649239       2.80409926       1.89601144        1 
H       2.71563463       2.65457482      -0.35334620        1 
H       2.79382272       1.76614284       1.17583344        1 
H       1.25362714      -3.88949297      -1.32926679        1 
H       1.45472250      -4.04817256       0.44476193        1 
H      -4.52827235       1.11222787      -1.09024040        1 
H      -4.32058927      -0.46158717      -0.25803870        1 
H      -1.10755902       2.61118697      -0.23805670        1 
C       2.43368170       0.16566665      -1.38145934        6 
H       2.88192087       0.91980163      -2.03322643        1 
H       3.23409704      -0.36612431      -0.86228138        1 
H       1.88880403      -0.55431557      -1.98836474        1 
