32
Lattice="0.0 0.0 0.0 0.0 0.0 0.0 0.0 0.0 0.0" Properties=species:S:1:pos:R:3:Z:I:1 pbc="F F F"
C      -0.57570475       0.72542343       0.87141026        6 
C       0.77924514      -0.03830442       0.71166016        6 
C      -1.73396104       0.07546764       0.10740106        6 
C       0.64371462      -1.55315589       0.77570089        6 
O      -2.60896282       0.99950522      -0.34097478        8 
O      -1.92741992      -1.10903853      -0.00129311        8 
O       1.06444251      -2.19997388      -0.32260914        8 
O       0.18339730      -2.10530810       1.74429110        8 
C       0.85879824      -3.62606746      -0.32502941        6 
C      -3.77154031       0.48738951      -1.01861691        6 
C      -0.18104595       2.04799933       0.17138370        6 
C       1.00611650       2.73983879       0.88296119        6 
C       2.21477880       1.94164294       0.31651919        6 
C       1.49237477       0.79156256      -0.42761188        6 
O       0.39965102       1.52212648      -1.03489360        8 
H      -0.87691039       0.82613438       1.91570035        1 
H       1.33393739       0.15420368       1.63548165        1 
H      -0.20259494      -3.84787357      -0.20976280        1 
H      -3.47510346      -0.08322190      -1.89962528        1 
H       1.05563387       3.79559525       0.61465559        1 
H       0.92202033       2.67688461       1.97082879        1 
H       2.77640934       2.53772894      -0.40541539        1 
H       2.90645788       1.58780059       1.08364642        1 
H       1.22344256      -3.96769456      -1.29151116        1 
H       1.41817779      -4.09581792       0.48544029        1 
H      -4.34767012       1.36424809      -1.30555005        1 
H      -4.35036931      -0.15409242      -0.35226965        1 
H      -1.01812345       2.69145522      -0.07649323        1 
C       2.30597266       0.09279374      -1.49149444        6 
H       2.74323262       0.84291279      -2.15522765        1 
H       3.11269639      -0.48782906      -1.03974832        1 
H       1.68891513      -0.58564543      -2.07746628        1 
