32
Lattice="0.0 0.0 0.0 0.0 0.0 0.0 0.0 0.0 0.0" Properties=species:S:1:pos:R:3:Z:I:1 pbc="F F F"
C      -0.74496596       0.54445846       0.90850989        6 
C       0.72125625       0.05590570       0.65144236        6 
C      -1.82319396      -0.26906372       0.17448674        6 
C       0.93770064      -1.44935808       0.69638556        6 
O      -2.70676198       0.52604505      -0.46756216        8 
O      -1.95446239      -1.46483454       0.23110474        8 
O       1.74284583      -1.91691133      -0.27764329        8 
O       0.45578382      -2.14743675       1.55036018        8 
C       1.98440722      -3.33798869      -0.25794729        6 
C      -3.77942410      -0.14667855      -1.14893304        6 
C      -0.62070509       1.95049617       0.27872761        6 
C       0.47020987       2.80553142       0.97147000        6 
C       1.76486328       2.27594153       0.29015941        6 
C       1.21017503       1.05232700      -0.47976676        6 
O      -0.02714037       1.60285140      -0.98390196        8 
H      -0.99341466       0.53004918       1.97112353        1 
H       1.26828941       0.34187490       1.55757912        1 
H       1.04140836      -3.88116314      -0.32708717        1 
H      -3.38202575      -0.82523776      -1.90505149        1 
H       0.31243615       3.86536711       0.76908312        1 
H       0.46897650       2.67155425       2.05602859        1 
H       2.16201440       3.00170502      -0.42238792        1 
H       2.55736477       2.01512295       0.99500949        1 
H       2.61008922      -3.53558759      -1.12569010        1 
H       2.49818130      -3.62515577       0.66077800        1 
H      -4.36517233       0.64297354      -1.61475264        1 
H      -4.38787649      -0.71335948      -0.44223788        1 
H      -1.56633525       2.45362527       0.11276678        1 
C       2.05311979       0.55686784      -1.63128428        6 
H       2.24222973       1.39131588      -2.31105136        1 
H       3.00716381       0.16600812      -1.27554812        1 
H       1.54537634      -0.23754413      -2.17695419        1 
