32
Lattice="0.0 0.0 0.0 0.0 0.0 0.0 0.0 0.0 0.0" Properties=species:S:1:pos:R:3:Z:I:1 pbc="F F F"
C      -0.51874739       0.79636790       0.50722286        6 
C       0.73696163      -0.05335320       0.85395837        6 
C      -1.84201154       0.08290222       0.32270128        6 
C       0.70416883      -1.54491117       0.55953226        6 
O      -2.80722542       0.99680736       0.06035061        8 
O      -2.05958544      -1.09966542       0.39024731        8 
O       0.35369453      -1.82967225      -0.70188350        8 
O       1.07855684      -2.37399970       1.35688533        8 
C       0.24614454      -3.22400220      -1.02873279        6 
C      -4.13248302       0.47265927      -0.14906263        6 
C      -0.00848826       1.68249640      -0.67680471        6 
C       0.77229772       2.86317834      -0.06964947        6 
C       2.01147677       2.11078087       0.49538836        6 
C       1.80263110       0.66836872      -0.05748031        6 
O       1.03713531       0.90310566      -1.25595496        8 
H      -0.71674589       1.46269487       1.35292881        1 
H       0.99628193       0.02789444       1.90799387        1 
H      -0.53710400      -3.68580101      -0.42555034        1 
H      -4.14409938      -0.19922906      -1.00870030        1 
H       1.05917127       3.56047609      -0.85856130        1 
H       0.20653797       3.41279915       0.68532250        1 
H       2.94417670       2.52761590       0.11221206        1 
H       2.06459409       2.12672973       1.58609800        1 
H      -0.01707973      -3.25339851      -2.08387221        1 
H       1.19249208      -3.73820968      -0.85273732        1 
H      -4.76178488       1.34060193      -0.33280413        1 
H      -4.47276853      -0.06935861       0.73442444        1 
H      -0.75852014       1.92584868      -1.42440746        1 
C       3.07061131      -0.09673475      -0.36096436        6 
H       3.71390664       0.49682593      -1.01400351        1 
H       3.61414319      -0.31064931       0.56285464        1 
H       2.85081916      -1.04131953      -0.85964102        1 
