32
Lattice="0.0 0.0 0.0 0.0 0.0 0.0 0.0 0.0 0.0" Properties=species:S:1:pos:R:3:Z:I:1 pbc="F F F"
C      -0.72638769       0.77159433       0.89570934        6 
C       0.65330300       0.06723850       0.68190514        6 
C      -1.98633197       0.00613979       0.50968544        6 
C       0.63726195      -1.40853729       0.34199248        6 
O      -2.15910717      -0.09046463      -0.81404908        8 
O      -2.80275700      -0.35842546       1.32481972        8 
O       1.84462783      -1.95016724       0.63438862        8 
O      -0.27050596      -2.05078257      -0.12188833        8 
C       2.00474337      -3.34342028       0.30767501        6 
C      -3.28377662      -0.87074310      -1.24971317        6 
C      -0.52076740       2.03425014       0.00773487        6 
C       0.50841438       2.97582912       0.67645447        6 
C       1.84287553       2.24961095       0.33793622        6 
C       1.32985827       0.99228390      -0.41080615        6 
O       0.19706984       1.51575558      -1.11570099        8 
H      -0.86170531       1.02810748       1.94544584        1 
H       1.23866243       0.13925185       1.59932662        1 
H       1.87804028      -3.50020027      -0.76492327        1 
H      -3.15255740      -1.90824709      -0.93814202        1 
H       0.46749730       3.96696152       0.22271948        1 
H       0.33503196       3.08854408       1.74869164        1 
H       2.45690240       2.84761444      -0.33795390        1 
H       2.44347763       2.00127482       1.21486515        1 
H       3.01654760      -3.59889003       0.61463696        1 
H       1.27429590      -3.94794207       0.84689384        1 
H      -3.28323034      -0.79613856      -2.33503572        1 
H      -4.21358304      -0.47859280      -0.83496903        1 
H      -1.44105967       2.50457013      -0.32955582        1 
C       2.30085497       0.34232940      -1.36866134        6 
H       2.66236755       1.08317154      -2.08512960        1 
H       3.15282344      -0.07084877      -0.82654381        1 
H       1.81757485      -0.46373830      -1.92538098        1 
