32
Lattice="0.0 0.0 0.0 0.0 0.0 0.0 0.0 0.0 0.0" Properties=species:S:1:pos:R:3:Z:I:1 pbc="F F F"
C      -0.32508727       1.06812513       0.28601786        6 
C       0.41802576      -0.23441685       0.69510022        6 
C      -1.80138672       1.02291434      -0.04622482        6 
C      -0.09838350      -1.45093494      -0.07848589        6 
O      -2.47571927       0.30185770       0.87268481        8 
O      -2.33689855       1.72035361      -0.87272126        8 
O       0.70430455      -2.52140422       0.09476151        8 
O      -1.15353668      -1.52578033      -0.65677772        8 
C       0.27625692      -3.74298396      -0.53664158        6 
C      -3.89145557       0.17587715       0.65990656        6 
C       0.63684228       1.70658254      -0.75067145        6 
C       1.60756585       2.59158835       0.04164430        6 
C       2.29980243       1.49528315       0.90315661        6 
C       1.86037757       0.17171700       0.18573597        6 
O       1.50096446       0.62508519      -1.13990895        8 
H      -0.33405500       1.70884606       1.17560445        1 
H       0.37168350      -0.45182522       1.76262359        1 
H       0.19573441      -3.60483359      -1.61574716        1 
H      -4.36996057       1.15621290       0.63893366        1 
H       2.31676257       3.06977640      -0.63566166        1 
H       1.11059043       3.36458267       0.63161225        1 
H       3.38553822       1.59177800       0.89033737        1 
H       1.98000803       1.51360594       1.94810890        1 
H       1.04572070      -4.47462119      -0.29974172        1 
H      -0.69060184      -4.05891608      -0.14209596        1 
H      -4.25986316      -0.41381755       1.49672842        1 
H      -4.07910027      -0.34258304      -0.28186972        1 
H       0.14956739       2.13677542      -1.62068758        1 
C       2.97001967      -0.85682713       0.11031022        6 
H       3.89009311      -0.35965322      -0.20519232        1 
H       3.13916366      -1.31258311       1.08875439        1 
H       2.74144004      -1.64703883      -0.59895572        1 
