32
Lattice="0.0 0.0 0.0 0.0 0.0 0.0 0.0 0.0 0.0" Properties=species:S:1:pos:R:3:Z:I:1 pbc="F F F"
C       0.29112162       0.89522620       0.80451832        6 
C       0.51934839      -0.64443336       0.61227733        6 
C      -0.99916684       1.48172237       0.26887023        6 
C      -0.71386895      -1.44208138       0.22267588        6 
O      -1.30366707       1.02198398      -0.95897542        8 
O      -1.65586949       2.30827035       0.85582390        8 
O      -1.75666101      -1.05949286       0.99729988        8 
O      -0.77909753      -2.35704208      -0.55694186        8 
C      -3.00034868      -1.74774843       0.77661325        6 
C      -2.51174076       1.53020771      -1.54956243        6 
C       1.51817776       1.45329120       0.02334092        6 
C       2.80037564       1.18520609       0.84065182        6 
C       3.00005572      -0.33454354       0.57901497        6 
C       1.78003803      -0.67323467      -0.32550623        6 
O       1.63471553       0.55175519      -1.07610552        8 
H       0.32426176       1.18110378       1.85409049        1 
H       0.78851814      -1.06868029       1.58498563        1 
H      -2.89518365      -2.81023235       1.00173426        1 
H      -3.37173708       1.28939440      -0.92175201        1 
H       3.63067915       1.77075613       0.44355415        1 
H       2.68267239       1.43719229       1.89646899        1 
H       3.92229342      -0.52438198       0.02747213        1 
H       3.02273785      -0.93458512       1.49085044        1 
H      -3.71286450      -1.28045503       1.45263290        1 
H      -3.31966616      -1.63179580      -0.26040815        1 
H      -2.58990095       1.03722914      -2.51592074        1 
H      -2.45170023       2.61240054      -1.67345854        1 
H       1.39611160       2.47139860      -0.34171762        1 
C       1.98792921      -1.84255965      -1.26103516        6 
H       2.92351571      -1.69749440      -1.80692089        1 
H       2.05136580      -2.77709063      -0.69938405        1 
H       1.16729715      -1.93347862      -1.96874457        1 
