32
Lattice="0.0 0.0 0.0 0.0 0.0 0.0 0.0 0.0 0.0" Properties=species:S:1:pos:R:3:Z:I:1 pbc="F F F"
C      -0.83183967       0.70512889       0.86738700        6 
C       0.61724783       0.16549686       0.67535179        6 
C      -1.99341227      -0.15492457       0.38927209        6 
C       0.75638975      -1.33748024       0.52018971        6 
O      -1.86475051      -0.55312290      -0.88474426        8 
O      -2.97777438      -0.35529251       1.06179317        8 
O       2.05674556      -1.67834747       0.38325329        8 
O      -0.12848164      -2.15254175       0.59844777        8 
C       2.33526700      -3.08818958       0.29047615        6 
C      -2.89839631      -1.41738910      -1.38344101        6 
C      -0.74211341       2.00440061       0.01509782        6 
C       0.21492946       3.01616487       0.69088344        6 
C       1.60209285       2.43385147       0.29020152        6 
C       1.18904309       1.13245095      -0.44495330        6 
O      -0.00131406       1.56648013      -1.12516235        8 
H      -1.04403191       0.91942066       1.91356679        1 
H       1.18076709       0.36088941       1.59296351        1 
H       1.83045386      -3.51999261      -0.57494925        1 
H      -2.89268203      -2.35830975      -0.83033670        1 
H       0.06720719       4.01402497       0.27602133        1 
H       0.06279259       3.07567906       1.77063659        1 
H       2.11951713       3.09447817      -0.40809544        1 
H       2.26394897       2.24820618       1.13835732        1 
H       3.41489723      -3.16245552       0.18068872        1 
H       2.00312145      -3.60258538       1.19337508        1 
H      -2.65244720      -1.58790554      -2.42950974        1 
H      -3.87743639      -0.94555403      -1.28982199        1 
H      -1.70396511       2.40506474      -0.29831993        1 
C       2.18305994       0.59361248      -1.44724355        6 
H       2.40479826       1.37264976      -2.18001020        1 
H       3.10884680       0.29461777      -0.95524793        1 
H       1.77762952      -0.27191108      -1.97388092        1 
