32
Lattice="0.0 0.0 0.0 0.0 0.0 0.0 0.0 0.0 0.0" Properties=species:S:1:pos:R:3:Z:I:1 pbc="F F F"
C      -0.67565896       0.78233145       0.64970411        6 
C       0.60845612      -0.09545525       0.60123455        6 
C      -1.86656794       0.34106521      -0.19251905        6 
C       0.46819742      -1.56201564       0.25124344        6 
O      -2.96340600       0.22004013       0.60125149        8 
O      -1.88412108       0.14398510      -1.37597753        8 
O       1.52316271      -2.23894266       0.77707523        8 
O      -0.39137332      -2.09805853      -0.39720371        8 
C       1.57843249      -3.64553269       0.47656335        6 
C      -4.16642555      -0.20007431      -0.06809591        6 
C      -0.10171301       2.08746010       0.01578352        6 
C       0.97477229       2.71201199       0.94014623        6 
C       2.21020385       1.82160890       0.61167016        6 
C       1.57308032       0.76199009      -0.32077368        6 
O       0.66024991       1.57158763      -1.07537832        8 
H      -1.01561013       0.92938833       1.67342102        1 
H       1.04084079      -0.10382428       1.60274988        1 
H       1.63271993      -3.80503686      -0.60164735        1 
H      -4.44931173       0.52106342      -0.83696321        1 
H       1.14953201       3.75468399       0.67207121        1 
H       0.68589176       2.68054681       1.99313395        1 
H       2.96581814       2.38318457       0.05871336        1 
H       2.68311743       1.38407454       1.49300246        1 
H       2.47959545      -4.01126570       0.96394980        1 
H       0.69674795      -4.15501177       0.86851917        1 
H      -4.92813194      -0.25173257       0.70721187        1 
H      -4.01894229      -1.17690444      -0.53110300        1 
H      -0.85748725       2.77557135      -0.35717728        1 
C       2.50325102       0.00922718      -1.24178939        6 
H       3.07205268       0.71694388      -1.84835767        1 
H       3.20119410      -0.60248037      -0.66668823        1 
H       1.93639202      -0.64103223      -1.91242899        1 
