32
Lattice="0.0 0.0 0.0 0.0 0.0 0.0 0.0 0.0 0.0" Properties=species:S:1:pos:R:3:Z:I:1 pbc="F F F"
C      -0.15306180       0.75736974      -0.85587641        6 
C      -0.48137375      -0.75466812      -0.50796724        6 
C       1.16012878       1.27872523      -0.27002272        6 
C       0.70663770      -1.55996025      -0.00746939        6 
O       0.97375225       2.13563850       0.74835658        8 
O       2.25416778       0.97641262      -0.68394245        8 
O       1.55670360      -1.75207430      -1.03307335        8 
O       0.85175518      -2.06141656       1.08039351        8 
C       2.80377912      -2.39796891      -0.72467366        6 
C       2.16459634       2.65606504       1.36651474        6 
C      -1.41324446       1.43420698      -0.26863375        6 
C      -2.65038727       1.06216987      -1.11825996        6 
C      -2.94403982      -0.37443147      -0.60645403        6 
C      -1.76583809      -0.60949777       0.37824865        6 
O      -1.61127593       0.70623699       0.94919866        8 
H      -0.06299828       0.88046141      -1.93582494        1 
H      -0.74540716      -1.24910068      -1.44549641        1 
H       2.63143656      -3.37812963      -0.27767528        1 
H       2.74701117       1.84506240       1.80589847        1 
H      -3.47737697       1.74113920      -0.90650029        1 
H      -2.44639061       1.10772790      -2.19071952        1 
H      -3.88319797      -0.41206679      -0.05194486        1 
H      -2.98980301      -1.12290357      -1.40029060        1 
H       3.32250776      -2.49189912      -1.67572624        1 
H       3.38197188      -1.77646846      -0.03957540        1 
H       1.81312661       3.33573087       2.13934374        1 
H       2.77701692       3.18402871       0.63406402        1 
H      -1.29635646       2.49053849      -0.04734476        1 
C      -2.03823846      -1.63696591       1.45429399        6 
H      -2.97385093      -1.38505501       1.95927046        1 
H      -2.14309494      -2.63031306       1.00988230        1 
H      -1.23155052      -1.67560198       2.18219174        1 
