32
Lattice="0.0 0.0 0.0 0.0 0.0 0.0 0.0 0.0 0.0" Properties=species:S:1:pos:R:3:Z:I:1 pbc="F F F"
C       0.16133693       1.18842460       0.44461088        6 
C       0.56894579      -0.27301958       0.84920165        6 
C      -1.23708266       1.36237738      -0.11917807        6 
C      -0.42959741      -1.38029546       0.58430073        6 
O      -2.15661059       0.98520268       0.79820712        8 
O      -1.51673093       1.80810363      -1.20149684        8 
O      -0.99833331      -1.28304382      -0.63044235        8 
O      -0.64861903      -2.28478074       1.35462297        8 
C      -1.93912938      -2.31106987      -0.98352953        6 
C      -3.53063180       1.04157507       0.37643844        6 
C       1.27270420       1.55077527      -0.56890767        6 
C       2.57580913       1.85494431       0.19541114        6 
C       2.98579782       0.42536194       0.65345462        6 
C       1.88222938      -0.44975690      -0.00459501        6 
O       1.56590339       0.29312494      -1.19216853        8 
H       0.20556611       1.82614051       1.33139624        1 
H       0.79095597      -0.33948985       1.91277294        1 
H      -2.75149975      -2.34948655      -0.25594425        1 
H      -3.81661909       2.06608282       0.13358503        1 
H       3.31599222       2.27989263      -0.48416530        1 
H       2.43376700       2.55525404       1.02102741        1 
H       3.96374668       0.14299816       0.26007110        1 
H       3.01499377       0.30818980       1.73858970        1 
H      -2.31106407      -2.03487778      -1.96750723        1 
H      -1.44552147      -3.28366859      -1.01858595        1 
H      -4.10915509       0.67128251       1.21987733        1 
H      -3.68200440       0.41066152      -0.50119137        1 
H       0.96881917       2.27059721      -1.32359544        1 
C       2.28508155      -1.86741580      -0.34335368        6 
H       3.19438287      -1.85798619      -0.94776609        1 
H       2.47563338      -2.43975373       0.56758563        1 
H       1.50162461      -2.37044734      -0.91283262        1 
