32
Lattice="0.0 0.0 0.0 0.0 0.0 0.0 0.0 0.0 0.0" Properties=species:S:1:pos:R:3:Z:I:1 pbc="F F F"
C      -0.03936230       0.95467712       0.81571466        6 
C       0.74477608      -0.41197961       0.77158881        6 
C      -1.48398852       0.88331423       0.32368973        6 
C      -0.14026133      -1.64597455       0.73173517        6 
O      -1.79612515       1.89826213      -0.50409467        8 
O      -2.28776590       0.05700095       0.67899801        8 
O      -0.50066109      -2.00173319      -0.51475398        8 
O      -0.53503030      -2.19993750       1.72737527        8 
C      -1.49118305      -3.04307055      -0.60647409        6 
C      -3.15162616       1.92043034      -0.99024927        6 
C       0.87502136       1.81482748      -0.08704338        6 
C       2.24237654       2.03907103       0.59870100        6 
C       2.94260024       0.67991943       0.32931483        6 
C       1.80772982      -0.12693900      -0.35444595        6 
O       1.17426499       0.89796328      -1.14979129        8 
H      -0.09626713       1.32665415       1.84182579        1 
H       1.26534214      -0.52088832       1.72386220        1 
H      -2.40484794      -2.72548137      -0.10284739        1 
H      -3.36654351       1.00910886      -1.54971837        1 
H       2.77485676       2.86682822       0.12861103        1 
H       2.13794914       2.26947846       1.66147237        1 
H       3.77296963       0.79382588      -0.36989879        1 
H       3.32224030       0.19507315       1.23076214        1 
H      -1.66356656      -3.18424292      -1.67144400        1 
H      -1.12352436      -3.96362621      -0.15099691        1 
H      -3.21046651       2.79120992      -1.63929239        1 
H      -3.85445234       2.00797300      -0.16044742        1 
H       0.40015176       2.70244199      -0.49090142        1 
C       2.27805349      -1.27743308      -1.21564136        6 
H       3.05611710      -0.92903919      -1.89868939        1 
H       2.70149575      -2.06739498      -0.58859104        1 
H       1.45698695      -1.69744263      -1.79250126        1 
