32
Lattice="0.0 0.0 0.0 0.0 0.0 0.0 0.0 0.0 0.0" Properties=species:S:1:pos:R:3:Z:I:1 pbc="F F F"
C      -0.58763973       0.91679242       0.76958813        6 
C       0.65964937      -0.03585958       0.71843111        6 
C      -1.95392531       0.29147298       0.52652505        6 
C       0.37399985      -1.47538954       0.31668797        6 
O      -2.25623087       0.21506417      -0.78055679        8 
O      -2.70922526      -0.01958884       1.41557004        8 
O       1.52044811      -2.18564401       0.25358703        8 
O      -0.71144813      -1.98288920       0.18621126        8 
C       1.38136782      -3.59008204      -0.03448634        6 
C      -3.47769151      -0.47065144      -1.10276310        6 
C      -0.18604923       2.00609441      -0.26337633        6 
C       0.81542926       2.96772807       0.40083886        6 
C       2.06539878       2.05017237       0.49847253        6 
C       1.59645531       0.77328277      -0.26548335        6 
O       0.63459652       1.29762032      -1.19676042        8 
H      -0.66344444       1.34261294       1.77041179        1 
H       1.13022955      -0.10845062       1.70128689        1 
H       0.91938601      -3.73480840      -1.01230753        1 
H      -3.41223972      -1.50797873      -0.77106358        1 
H       1.00232697       3.82336665      -0.25022055        1 
H       0.46870104       3.34261882       1.36597916        1 
H       2.92652907       2.49233273      -0.00483360        1 
H       2.35870147       1.82820535       1.52651967        1 
H       2.39410118      -3.98696131      -0.02741201        1 
H       0.77017998      -4.07670269       0.72683972        1 
H      -3.56256614      -0.41813764      -2.18622519        1 
H      -4.33072604       0.01346346      -0.62485065        1 
H      -1.02152217       2.46486461      -0.78433707        1 
C       2.69819505       0.05854134      -1.01765324        6 
H       3.20987403       0.78273433      -1.65576349        1 
H       3.42281784      -0.37735687      -0.32794085        1 
H       2.30241172      -0.73898217      -1.64506952        1 
