32
Lattice="0.0 0.0 0.0 0.0 0.0 0.0 0.0 0.0 0.0" Properties=species:S:1:pos:R:3:Z:I:1 pbc="F F F"
C      -0.75132141       0.72935744       0.64723829        6 
C       0.61770375      -0.00440302       0.62126700        6 
C      -1.85566459       0.12526180      -0.21104423        6 
C       0.58892877      -1.49951042       0.37766265        6 
O      -2.98830271      -0.00188097       0.52436260        8 
O      -1.78403128      -0.16891016      -1.37355681        8 
O       1.82644501      -2.01803437       0.56697172        8 
O      -0.36870540      -2.17575385       0.10257861        8 
C       1.95369179      -3.43661095       0.35751161        6 
C      -4.10912255      -0.58770992      -0.16316591        6 
C      -0.31659228       2.07842243       0.00069143        6 
C       0.69400099       2.81485905       0.91739285        6 
C       2.01670461       2.06547099       0.57624893        6 
C       1.48691016       0.92587069      -0.32909641        6 
O       0.49024901       1.62980437      -1.08755379        8 
H      -1.12758998       0.85157741       1.66145954        1 
H       1.05516908       0.06966143       1.62086868        1 
H       1.69685557      -3.69354605      -0.67140169        1 
H      -4.39115636       0.01860091      -1.02547081        1 
H       0.75186487       3.87169459       0.65404134        1 
H       0.41853959       2.74759295       1.97231393        1 
H       2.69165891       2.69985733      -0.00186504        1 
H       2.55425106       1.70174479       1.45413964        1 
H       2.99734405      -3.66732967       0.56026256        1 
H       1.29971140      -3.98405146       1.03775154        1 
H      -4.91570093      -0.61599751       0.56657945        1 
H      -3.85707823      -1.59460594      -0.49946767        1 
H      -1.13899332       2.68437949      -0.37404874        1 
C       2.48042359       0.27031116      -1.25767976        6 
H       2.95045202       1.03472136      -1.88051529        1 
H       3.25143132      -0.25333945      -0.69210704        1 
H       1.97835101      -0.44668157      -1.91066795        1 
