32
Lattice="0.0 0.0 0.0 0.0 0.0 0.0 0.0 0.0 0.0" Properties=species:S:1:pos:R:3:Z:I:1 pbc="F F F"
C       0.06994980       1.09602263       0.33692607        6 
C       0.52526101      -0.31451638       0.82810740        6 
C      -1.38339985       1.29457758      -0.03868426        6 
C      -0.28901056      -1.51592818       0.37925962        6 
O      -2.19025290       0.85101138       0.95094108        8 
O      -1.78159182       1.88729293      -1.00956936        8 
O      -1.15098987      -1.23511331      -0.61164747        8 
O      -0.08914013      -2.63765163       0.78303689        8 
C      -1.86085442      -2.34650578      -1.18559219        6 
C      -3.60332802       0.98252305       0.72110301        6 
C       1.10640868       1.42722781      -0.76741993        6 
C       2.34918555       2.00970651      -0.07526791        6 
C       2.83455175       0.75494128       0.70372025        6 
C       1.93759929      -0.37626129       0.10756533        6 
O       1.58407044       0.14132676      -1.18817865        8 
H       0.20092342       1.78869794       1.17602656        1 
H       0.62573805      -0.37798248       1.91072202        1 
H      -2.47050212      -2.84139352      -0.42790028        1 
H      -3.87395374       2.02741022       0.56313404        1 
H       3.08130346       2.32009801      -0.82264939        1 
H       2.12608806       2.86639712       0.56391641        1 
H       3.88582057       0.53939309       0.50922928        1 
H       2.70916698       0.84526555       1.78498177        1 
H      -2.48523836      -1.91650521      -1.96534404        1 
H      -1.15871420      -3.06569678      -1.60942338        1 
H      -4.08142571       0.59369802       1.61763582        1 
H      -3.89868456       0.39885380      -0.15283381        1 
H       0.70304221       1.97453070      -1.61428166        1 
C       2.62392762      -1.71779571      -0.01300963        6 
H       3.57917481      -1.58611209      -0.52626950        1 
H       2.81055938      -2.13876064       0.97699803        1 
H       2.02287543      -2.43347887      -0.57207535        1 
