32
Lattice="0.0 0.0 0.0 0.0 0.0 0.0 0.0 0.0 0.0" Properties=species:S:1:pos:R:3:Z:I:1 pbc="F F F"
C      -0.84230576      -0.44121265      -0.44310661        6 
C       0.63592204      -0.03792737      -0.66010254        6 
C      -1.88058724       0.64238607      -0.24486194        6 
C       1.11486637       1.20531802       0.07194994        6 
O      -3.09949392       0.05846011      -0.11411695        8 
O      -1.71260565       1.83227335      -0.20967820        8 
O       2.10042632       1.79999937      -0.64967566        8 
O       0.72966497       1.61839392       1.13153951        8 
C       2.67731846       2.97747105      -0.05843804        6 
C      -4.20910896       0.95340605       0.08727978        6 
C      -0.73599267      -1.60184192       0.60432856        6 
C      -0.47675518      -2.89382348      -0.19052242        6 
C       0.93876204      -2.57653999      -0.75592238        6 
C       1.32737016      -1.28476236       0.02893984        6 
O       0.53249861      -1.38872668       1.22441567        8 
H      -1.17593310      -0.90193254      -1.37999938        1 
H       0.90047708       0.04550386      -1.71251388        1 
H       3.16121736       2.73251527       0.88888849        1 
H      -4.06282401       1.54349496       0.99316438        1 
H      -0.44903910      -3.74899025       0.48682987        1 
H      -1.22739040      -3.08439114      -0.95971530        1 
H       1.64794301      -3.37645290      -0.53816564        1 
H       0.94419915      -2.41443606      -1.83613750        1 
H       3.40884794       3.33693752      -0.77914481        1 
H       1.90668923       3.72908796       0.11790488        1 
H      -5.08387067       0.31371045       0.18280078        1 
H      -4.31685961       1.62599981      -0.76522098        1 
H      -1.52373423      -1.63038501       1.35171604        1 
C       2.79461602      -1.15494189       0.37097867        6 
H       3.13701064      -2.06355995       0.87094036        1 
H       3.38648674      -1.00935584      -0.53561134        1 
H       2.97050280      -0.31169802       1.04069724        1 
