32
Lattice="0.0 0.0 0.0 0.0 0.0 0.0 0.0 0.0 0.0" Properties=species:S:1:pos:R:3:Z:I:1 pbc="F F F"
C      -0.21782038       0.80156563       0.64409167        6 
C       0.72621034      -0.45003332       0.57394858        6 
C      -1.62158591       0.64933661       0.08257895        6 
C       0.09949836      -1.69461056      -0.03854694        6 
O      -2.21474794       1.86065433      -0.00406929        8 
O      -2.18121495      -0.37736397      -0.20689621        8 
O      -0.44974175      -2.44905102       0.93971700        8 
O       0.11785816      -2.01679720      -1.19819331        8 
C      -1.21208461      -3.58411508       0.49252443        6 
C      -3.57224606       1.86696190      -0.48699713        6 
C       0.63703467       1.86548504      -0.10758334        6 
C       1.78658794       2.32700131       0.80945079        6 
C       2.71072659       1.08060159       0.76200372        6 
C       1.94668568       0.13975859      -0.21403713        6 
O       1.30534959       1.08467924      -1.09953373        8 
H      -0.36653301       1.10548862       1.68388665        1 
H       1.02475699      -0.72789243       1.58481902        1 
H      -0.58451103      -4.26696130      -0.08220563        1 
H      -3.61667359       1.46180615      -1.49890218        1 
H       2.27694821       3.20305187       0.38224343        1 
H       1.44634215       2.58516778       1.81449286        1 
H       3.68717713       1.32489435       0.34095826        1 
H       2.87293653       0.62104178       1.73905474        1 
H      -1.57454842      -4.06647790       1.39796575        1 
H      -2.04517392      -3.24570788      -0.12514054        1 
H      -3.87702697       2.91099463      -0.47801344        1 
H      -4.21207500       1.27275268       0.16716170        1 
H       0.05658565       2.65313451      -0.57826120        1 
C       2.83341251      -0.81642932      -0.98204547        6 
H       3.65827118      -0.26309655      -1.43666248        1 
H       3.25637645      -1.56190766      -0.30182436        1 
H       2.27410479      -1.33290967      -1.75879452        1 
