32
Lattice="0.0 0.0 0.0 0.0 0.0 0.0 0.0 0.0 0.0" Properties=species:S:1:pos:R:3:Z:I:1 pbc="F F F"
C      -0.38673025       0.93449208       0.53279567        6 
C       0.72740095      -0.13166949       0.82982006        6 
C      -1.67658509       0.41938910      -0.06872023        6 
C       0.18596051      -1.55285211       0.74084503        6 
O      -2.70074237       1.22832683       0.28611029        8 
O      -1.80547275      -0.52570842      -0.80569353        8 
O       0.55329137      -2.23621844      -0.34699877        8 
O      -0.52565018      -2.00290309       1.60997986        8 
C      -0.09536431      -3.50750676      -0.53877345        6 
C      -3.98740013       0.89651347      -0.26996681        6 
C       0.35032192       1.84241392      -0.50617725        6 
C       1.38024071       2.71318048       0.23871559        6 
C       2.46599491       1.65194701       0.56370556        6 
C       1.88581869       0.36669307      -0.10081395        6 
O       1.16299958       0.91563136      -1.22435289        8 
H      -0.64623946       1.49956726       1.42628165        1 
H       1.02285461      -0.03488630       1.87573009        1 
H      -1.16671580      -3.35032753      -0.66777443        1 
H      -3.95678214       0.94342731      -1.35967455        1 
H       1.76563332       3.48666998      -0.42762320        1 
H       0.96201165       3.20255317       1.12032805        1 
H       3.41880901       1.90287370       0.09572479        1 
H       2.64078475       1.52360543       1.63367867        1 
H       0.34354443      -3.92120823      -1.44410308        1 
H       0.08219402      -4.16396645       0.31382025        1 
H      -4.67450432       1.64051666       0.12698469        1 
H      -4.28622326      -0.10623147       0.03892317        1 
H      -0.30956719       2.36890703      -1.19297967        1 
C       2.94265357      -0.61473489      -0.55921667        6 
H       3.69956576      -0.08629116      -1.14313673        1 
H       3.43427976      -1.06922895       0.30612815        1 
H       2.50895178      -1.40585178      -1.16470153        1 
