32
Lattice="0.0 0.0 0.0 0.0 0.0 0.0 0.0 0.0 0.0" Properties=species:S:1:pos:R:3:Z:I:1 pbc="F F F"
C       0.17589771       0.96209662       0.82482399        6 
C       0.64802245      -0.53250632       0.71925163        6 
C      -1.25854255       1.31007975       0.45617466        6 
C      -0.34071435      -1.65673852       0.46555730        6 
O      -1.46671442       1.33553931      -0.87114249        8 
O      -2.09495342       1.62433922       1.27006433        8 
O      -1.60208833      -1.25313359       0.25811454        8 
O      -0.01429072      -2.82065931       0.48567450        8 
C      -2.58725811      -2.28551355       0.06651559        6 
C      -2.80306097       1.64327278      -1.29431335        6 
C       1.20951836       1.64414455      -0.11430069        6 
C       2.59636942       1.65546157       0.56688898        6 
C       3.03872448       0.17783914       0.36374620        6 
C       1.80569096      -0.42314045      -0.36200228        6 
O       1.36746720       0.68580023      -1.16250787        8 
H       0.28081967       1.30469672       1.85364574        1 
H       1.10011586      -0.82320768       1.66996400        1 
H      -2.60705142      -2.95663401       0.92592220        1 
H      -3.50444456       0.90567349      -0.89978504        1 
H       3.26615174       2.34573010       0.05214460        1 
H       2.54364329       1.95579920       1.61537566        1 
H       3.90981931       0.11391906      -0.29071790        1 
H       3.27432646      -0.34292202       1.29325631        1 
H      -3.53532332      -1.76205692      -0.03291349        1 
H      -2.36505121      -2.85843362      -0.83478520        1 
H      -2.77886935       1.60411653      -2.38129209        1 
H      -3.10071474       2.63583092      -0.95163615        1 
H       0.88171418       2.59321259      -0.53126402        1 
C       2.08166617      -1.62360919      -1.23616799        6 
H       2.87913816      -1.37572020      -1.94018051        1 
H       2.38741275      -2.48041925      -0.63475454        1 
H       1.19468329      -1.90885782      -1.80312860        1 
