32
Lattice="0.0 0.0 0.0 0.0 0.0 0.0 0.0 0.0 0.0" Properties=species:S:1:pos:R:3:Z:I:1 pbc="F F F"
C      -0.11720224       0.77296739      -0.83188559        6 
C      -0.47392003      -0.73774627      -0.51069233        6 
C       1.18872821       1.30140494      -0.22961445        6 
C       0.66532642      -1.64054617      -0.05985941        6 
O       0.97901899       2.15404571       0.79138735        8 
O       2.29238299       1.01245800      -0.62322718        8 
O       1.61953310      -1.64198662      -1.00584806        8 
O       0.67803320      -2.37865260       0.89515339        8 
C       2.79571049      -2.42412685      -0.73952511        6 
C       2.15617451       2.68773726       1.42315392        6 
C      -1.38064582       1.45729992      -0.26219658        6 
C      -2.61284142       1.09779166      -1.12587360        6 
C      -2.93438808      -0.33170836      -0.61103527        6 
C      -1.76260062      -0.58437540       0.37588579        6 
O      -1.59638687       0.72813681       0.95151585        8 
H      -0.01027913       0.90450860      -1.90970056        1 
H      -0.76033389      -1.19715688      -1.46148880        1 
H       2.54506057      -3.48415843      -0.67048248        1 
H       2.76396690       1.88140397       1.83607927        1 
H      -3.43248212       1.78997164      -0.92900472        1 
H      -2.39352908       1.13483048      -2.19562757        1 
H      -3.87493028      -0.34953503      -0.05780807        1 
H      -2.99289887      -1.08202036      -1.40231291        1 
H       3.46033347      -2.23688149      -1.57935893        1 
H       3.26089936      -2.09926630       0.19182086        1 
H       1.78813566       3.33404292       2.21669356        1 
H       2.75210693       3.25494852       0.70626842        1 
H      -1.25936862       2.51235206      -0.03800783        1 
C      -2.05506737      -1.60262365       1.45545728        6 
H      -2.99454752      -1.33550309       1.94545564        1 
H      -2.15864902      -2.59998371       1.02248988        1 
H      -1.25939752      -1.64117807       2.19580459        1 
