32
Lattice="0.0 0.0 0.0 0.0 0.0 0.0 0.0 0.0 0.0" Properties=species:S:1:pos:R:3:Z:I:1 pbc="F F F"
C       0.16572024       0.97384129       0.86324345        6 
C       0.65863875      -0.50136481       0.70351645        6 
C      -1.23564508       1.38519022       0.43534947        6 
C      -0.30197746      -1.67103604       0.59675226        6 
O      -1.49271897       1.16672600      -0.86073773        8 
O      -1.98494023       1.99078518       1.16921083        8 
O      -1.52630342      -1.36991485       0.14193138        8 
O       0.02174188      -2.78850181       0.93054617        8 
C      -2.46261108      -2.46130905       0.06046258        6 
C      -2.78292258       1.58506454      -1.32986079        6 
C       1.21301894       1.68280070      -0.05390893        6 
C       2.62397114       1.58739560       0.57774768        6 
C       3.02855699       0.13308648       0.19627276        6 
C       1.72457164      -0.37917237      -0.46339589        6 
O       1.29105576       0.79415165      -1.16937468        8 
H       0.24808981       1.29414586       1.90049811        1 
H       1.20728324      -0.75931337       1.61059168        1 
H      -2.62100589      -2.90195782       1.04559799        1 
H      -3.57301994       1.05700641      -0.79240099        1 
H       3.29337271       2.32102569       0.12690379        1 
H       2.60946937       1.76412485       1.65536779        1 
H       3.83223708       0.12802914      -0.54272376        1 
H       3.34145988      -0.47500576       1.04658367        1 
H      -3.38335504      -2.02181566      -0.31645828        1 
H      -2.09334509      -3.22770109      -0.62216551        1 
H      -2.80204033       1.32879111      -2.38694030        1 
H      -2.91585558       2.65949539      -1.19217901        1 
H       0.91784908       2.67424570      -0.39098975        1 
C       1.85840707      -1.55302280      -1.40322282        6 
H       2.60965143      -1.33047370      -2.16374489        1 
H       2.16092231      -2.44822962      -0.85700756        1 
H       0.90968258      -1.75735564      -1.90468289        1 
