32
Lattice="0.0 0.0 0.0 0.0 0.0 0.0 0.0 0.0 0.0" Properties=species:S:1:pos:R:3:Z:I:1 pbc="F F F"
C      -0.10850153       0.81162161       0.62271914        6 
C       0.68847254      -0.53534548       0.59805065        6 
C      -1.41900449       0.83653862      -0.13550718        6 
C      -0.11094411      -1.73599253       0.11187585        6 
O      -2.13025558       1.93033479       0.22588819        8 
O      -1.79431851       0.05164631      -0.96810300        8 
O      -1.08608229      -1.99876911       1.01749621        8 
O       0.07469376      -2.40459746      -0.86929891        8 
C      -2.01742759      -3.03023652       0.64512461        6 
C      -3.38000819       2.12278027      -0.46425283        6 
C       0.91167697       1.76017249      -0.07958148        6 
C       2.09307038       2.03663912       0.87160363        6 
C       2.86351904       0.69008726       0.77538496        6 
C       1.97387344      -0.12709365      -0.20635527        6 
O       1.47575323       0.91461570      -1.07839001        8 
H      -0.31437419       1.14352279       1.64002489        1 
H       0.96321958      -0.78462861       1.62554940        1 
H      -1.50357079      -3.98369139       0.51372480        1 
H      -3.21029064       2.24060594      -1.53558500        1 
H       2.69169969       2.86727296       0.49514723        1 
H       1.76547149       2.28516598       1.88311769        1 
H       3.85289420       0.83147512       0.33718680        1 
H       2.98903176       0.19032347       1.73767892        1 
H      -2.72932284      -3.08995634       1.46588831        1 
H      -2.51959418      -2.75685821      -0.28398545        1 
H      -3.80857737       3.02850974      -0.04112814        1 
H      -4.04089626       1.27074970      -0.29820150        1 
H       0.46158834       2.63679400      -0.54082213        1 
C       2.71430067      -1.17899113      -1.00107556        6 
H       3.59135675      -0.72345599      -1.46720176        1 
H       3.05304045      -1.98387048      -0.34286245        1 
H       2.07599062      -1.61252997      -1.76597604        1 
