32
Lattice="0.0 0.0 0.0 0.0 0.0 0.0 0.0 0.0 0.0" Properties=species:S:1:pos:R:3:Z:I:1 pbc="F F F"
C      -0.29906548       1.09639346       0.35674457        6 
C       0.52135836      -0.20659685       0.70537881        6 
C      -1.68318733       0.89576584      -0.23146540        6 
C      -0.18577651      -1.48990874       0.27056943        6 
O      -2.61718857       0.92185742       0.73963873        8 
O      -1.93548858       0.82564898      -1.40877738        8 
O       0.64695507      -2.46805249      -0.11545084        8 
O      -1.37877227      -1.65347983       0.36468950        8 
C       0.02937387      -3.72413283      -0.46299363        6 
C      -3.96039221       0.61766495       0.32662191        6 
C       0.67344213       1.82526207      -0.61013397        6 
C       1.70359324       2.58291983       0.24016796        6 
C       2.47203842       1.38513748       0.85982319        6 
C       1.90290890       0.16604398       0.05708680        6 
O       1.46191933       0.77023478      -1.17381537        8 
H      -0.44280511       1.67313450       1.27145793        1 
H       0.61586030      -0.30740157       1.79059269        1 
H      -0.66045895      -3.58762865      -1.29632151        1 
H      -4.28844612       1.30318175      -0.45608166        1 
H       2.35206205       3.17988287      -0.40342208        1 
H       1.24724968       3.24511227       0.97857907        1 
H       3.54738857       1.46798948       0.69951339        1 
H       2.30621705       1.28047618       1.93470884        1 
H       0.85148550      -4.37759065      -0.74627895        1 
H      -0.51204195      -4.13138009       0.39185025        1 
H      -4.57213922       0.73142276       1.21915274        1 
H      -4.00674546      -0.40868594      -0.04094791        1 
H       0.18303661       2.37978643      -1.40536361        1 
C       2.94588991      -0.89846184      -0.21788546        6 
H       3.85851962      -0.41320336      -0.57161870        1 
H       3.18054083      -1.45282003       0.69413571        1 
H       2.60847065      -1.60522947      -0.97039986        1 
