32
Lattice="0.0 0.0 0.0 0.0 0.0 0.0 0.0 0.0 0.0" Properties=species:S:1:pos:R:3:Z:I:1 pbc="F F F"
C      -0.78717627       0.75408868      -0.92265125        6 
C      -0.09655605      -0.60627007      -0.65658567        6 
C      -0.26097458       1.98241217      -0.17643427        6 
C       1.41673214      -0.61728439      -0.74805551        6 
O       0.85370169       1.75965120       0.53124839        8 
O      -0.87907716       3.02041097      -0.13236793        8 
O       1.95595782      -1.69599946      -0.14258975        8 
O       2.06446467       0.17503180      -1.38497636        8 
C       3.37979107      -1.85461400      -0.28935698        6 
C       1.31158276       2.84661643       1.35432643        6 
C      -2.14775841       0.45280860      -0.22877126        6 
C      -2.86184589      -0.78141594      -0.83268338        6 
C      -2.11260790      -1.95389521      -0.13004618        6 
C      -0.95094159      -1.19076884       0.54741712        6 
O      -1.66184581      -0.02862483       1.03579932        8 
H      -0.87398217       0.99962120      -1.98130958        1 
H      -0.33602699      -1.23481892      -1.52454936        1 
H       3.90339725      -0.98303659       0.10518393        1 
H       1.50236317       3.73104698       0.74538298        1 
H      -3.92241641      -0.77056286      -0.57970406        1 
H      -2.78019610      -0.80957407      -1.92202258        1 
H      -2.73803636      -2.42065295       0.63349966        1 
H      -1.76794553      -2.73026231      -0.81676754        1 
H       3.63150737      -2.74580554       0.28158661        1 
H       3.64205809      -1.98473546      -1.34051668        1 
H       2.23177145       2.49239540       1.81364697        1 
H       0.56561571       3.08331403       2.11466524        1 
H      -2.76596285       1.33331376      -0.08155967        1 
C      -0.26424512      -1.88299457       1.69949682        6 
H      -1.00990114      -2.11596794       2.46344464        1 
H       0.21147265      -2.80715443       1.37212561        1 
H       0.50042329      -1.24153641       2.13885056        1 
