32
Lattice="0.0 0.0 0.0 0.0 0.0 0.0 0.0 0.0 0.0" Properties=species:S:1:pos:R:3:Z:I:1 pbc="F F F"
C      -0.66399656       0.69714362       0.63012222        6 
C       0.71386582      -0.02494044       0.65988033        6 
C      -1.86649379      -0.19727096       0.40347008        6 
C       0.73362217      -1.36540216      -0.04932803        6 
O      -2.85752229       0.45013778      -0.23930151        8 
O      -1.95878160      -1.33089357       0.80508749        8 
O       1.50280440      -2.24603092       0.63026542        8 
O       0.19629781      -1.62128745      -1.09614433        8 
C       1.61423156      -3.55625504       0.04406851        6 
C      -4.06289326      -0.30714582      -0.46377362        6 
C      -0.39717197       1.87860672      -0.34624925        6 
C       0.32260398       2.98967193       0.44371812        6 
C       1.70110882       2.31037792       0.68940331        6 
C       1.57808662       1.00882661      -0.15712544        6 
O       0.65222734       1.39063803      -1.18870073        8 
H      -0.85629540       1.10324074       1.63012307        1 
H       1.09596145      -0.15779946       1.66987891        1 
H       2.06550253      -3.49527864      -0.94773869        1 
H      -3.84443954      -1.19236481      -1.06201972        1 
H       0.42645053       3.88082760      -0.17747681        1 
H      -0.19830773       3.27153713       1.36113011        1 
H       2.52334432       2.92171908       0.31477634        1 
H       1.89519123       2.09670489       1.74260461        1 
H       2.24969561      -4.12392724       0.72038184        1 
H       0.62868168      -4.01685221      -0.03727434        1 
H      -4.73014403       0.36459852      -0.99920862        1 
H      -4.50356556      -0.61218598       0.48664413        1 
H      -1.25031129       2.17936643      -0.94570570        1 
C       2.86902745       0.49145422      -0.75220022        6 
H       3.37492355       1.29230346      -1.29571863        1 
H       3.53388791       0.13100455       0.03664248        1 
H       2.67769714      -0.32554947      -1.45009284        1 
