32
Lattice="0.0 0.0 0.0 0.0 0.0 0.0 0.0 0.0 0.0" Properties=species:S:1:pos:R:3:Z:I:1 pbc="F F F"
C       0.29246627       0.89680399       0.79355439        6 
C       0.53118276      -0.64704763       0.62032671        6 
C      -1.03442850       1.44931527       0.31372893        6 
C      -0.68597856      -1.45496752       0.19735787        6 
O      -1.29710918       1.10508537      -0.96179318        8 
O      -1.76147843       2.14268488       0.98317593        8 
O      -1.75640724      -1.07144806       0.93031044        8 
O      -0.71980297      -2.37664578      -0.57665171        8 
C      -2.98921553      -1.76798579       0.67706300        6 
C      -2.54603176       1.56867535      -1.50177662        6 
C       1.49023114       1.45826453      -0.02869965        6 
C       2.78541990       1.26147705       0.78603420        6 
C       3.00699294      -0.26690370       0.60846462        6 
C       1.80534477      -0.67207137      -0.29663264        6 
O       1.62885019       0.51804063      -1.09306168        8 
H       0.36044713       1.19014040       1.83952926        1 
H       0.78056538      -1.06567124       1.60058399        1 
H      -2.89059970      -2.82423936       0.93249390        1 
H      -3.37974437       1.19586394      -0.90397302        1 
H       3.60069897       1.83644724       0.34450648        1 
H       2.67652653       1.57184824       1.82712610        1 
H       3.94068069      -0.47419692       0.08325345        1 
H       3.02316449      -0.81737398       1.55136538        1 
H      -3.72818077      -1.28574351       1.31292808        1 
H      -3.26705102      -1.67859231      -0.37436887        1 
H      -2.58856668       1.17066785      -2.51315165        1 
H      -2.57707931       2.65919531      -1.51586705        1 
H       1.33317548       2.45583659      -0.43431998        1 
C       2.06208067      -1.86958916      -1.18442192        6 
H       3.00809136      -1.72381037      -1.71161712        1 
H       2.13130863      -2.78183050      -0.58755561        1 
H       1.26207495      -2.00394302      -1.90813493        1 
