32
Lattice="0.0 0.0 0.0 0.0 0.0 0.0 0.0 0.0 0.0" Properties=species:S:1:pos:R:3:Z:I:1 pbc="F F F"
C       0.47844299       1.05303971       0.79492828        6 
C       0.40630034      -0.50453603       0.73208072        6 
C      -0.70692451       1.83038751       0.24965049        6 
C      -1.01827315      -1.03625325       0.72704578        6 
O      -1.25816776       1.25043939      -0.83046609        8 
O      -1.05245732       2.90189654       0.68678161        8 
O      -1.15417414      -2.21344503       0.09388627        8 
O      -1.91978483      -0.50214325       1.32770078        8 
C      -2.46640903      -2.80783098       0.13492088        6 
C      -2.38817902       1.92595214      -1.40830198        6 
C       1.71145992       1.30393376      -0.12104292        6 
C       2.99376182       0.78532448       0.56855298        6 
C       2.85894555      -0.74598234       0.32986920        6 
C       1.47940266      -0.83793860      -0.38174146        6 
O       1.49963869       0.36543118      -1.17612813        8 
H       0.63998982       1.42411614       1.80533030        1 
H       0.78421776      -0.89702876       1.68305399        1 
H      -3.20167217      -2.13657352      -0.31042625        1 
H      -3.21361256       1.95241837      -0.69483066        1 
H       3.87908759       1.18934153       0.07586149        1 
H       3.03923553       1.06326287       1.62365146        1 
H       3.63679560      -1.10776568      -0.34501529        1 
H       2.90167833      -1.33973609       1.24484330        1 
H      -2.38365820      -3.72524851      -0.44374966        1 
H      -2.75494020      -3.02526521       1.16421509        1 
H      -2.65682202       1.34115932      -2.28544532        1 
H      -2.12189957       2.94465859      -1.69305617        1 
H       1.76959748       2.31275744      -0.52488561        1 
C       1.30465281      -2.04174303      -1.27889128        6 
H       2.14701039      -2.08904315      -1.97342282        1 
H       1.27938600      -2.96171077      -0.69270640        1 
H       0.38001975      -1.97709089      -1.84950940        1 
