32
Lattice="0.0 0.0 0.0 0.0 0.0 0.0 0.0 0.0 0.0" Properties=species:S:1:pos:R:3:Z:I:1 pbc="F F F"
C      -0.19874255       0.71306127       0.81183262        6 
C       0.67649558      -0.53687066       0.54842682        6 
C      -1.37747492       0.83183747      -0.15021124        6 
C      -0.02729859      -1.84321423       0.23565880        6 
O      -2.00214189       2.01750453       0.02361736        8 
O      -1.74486518       0.00496138      -0.94498658        8 
O      -1.17406842      -1.93690831       0.94360077        8 
O       0.44757104      -2.76985353      -0.37300666        8 
C      -1.92512414      -3.14997289       0.76735849        6 
C      -3.12877176       2.26641799      -0.83834143        6 
C       0.82222902       1.80854402       0.39441369        6 
C       2.10860466       1.75448493       1.25372750        6 
C       2.88752720       0.59061593       0.57164825        6 
C       1.81070577       0.03528638      -0.39031276        6 
O       1.23897364       1.27926697      -0.87175324        8 
H      -0.55527634       0.79923679       1.83852793        1 
H       1.15010113      -0.79027989       1.50434211        1 
H      -1.32955188      -4.01885609       1.05161170        1 
H      -2.81699223       2.24886254      -1.88362746        1 
H       2.65230503       2.69770611       1.18936199        1 
H       1.89101325       1.56744006       2.30834239        1 
H       3.73105122       0.96730985      -0.01008466        1 
H       3.26024401      -0.15833563       1.27378659        1 
H      -2.79316504      -3.05032738       1.41564181        1 
H      -2.23658842      -3.24767621      -0.27370981        1 
H      -3.49269127       3.25356943      -0.56219034        1 
H      -3.90229972       1.51303767      -0.68157320        1 
H       0.38766609       2.79520888       0.26123687        1 
C       2.29716778      -0.79634747      -1.55093928        6 
H       3.03997102      -0.22349547      -2.11197649        1 
H       2.75012888      -1.72339884      -1.19904667        1 
H       1.47348900      -1.05776649      -2.21469536        1 
