32
Lattice="0.0 0.0 0.0 0.0 0.0 0.0 0.0 0.0 0.0" Properties=species:S:1:pos:R:3:Z:I:1 pbc="F F F"
C       0.26021638       1.15932289       0.60380351        6 
C       0.41937892      -0.40070937       0.63951793        6 
C      -1.00666766       1.66924995      -0.06346800        6 
C      -0.71275754      -1.18665113       0.01757787        6 
O      -2.08862109       1.29138254       0.65481536        8 
O      -1.06295097       2.33668968      -1.06204411        8 
O      -1.02505551      -2.24948284       0.79432481        8 
O      -1.24101071      -0.96410842      -1.04307425        8 
C      -2.04913691      -3.12388466       0.28491833        6 
C      -3.36839357       1.57329127       0.05817830        6 
C       1.53722922       1.57495174      -0.16169790        6 
C       2.76213000       1.41567342       0.76243779        6 
C       2.91821429      -0.13241400       0.78225374        6 
C       1.76758489      -0.57795191      -0.16143349        6 
O       1.70459527       0.50367084      -1.09981162        8 
H       0.24945122       1.54519467       1.62597107        1 
H       0.53937287      -0.75492765       1.66162370        1 
H      -1.75029611      -3.54400918      -0.67666819        1 
H      -3.48781143       2.64452251      -0.10870059        1 
H       3.63485529       1.89783496       0.31986879        1 
H       2.60107620       1.84895771       1.75220010        1 
H       3.87639790      -0.44147994       0.36081981        1 
H       2.83297162      -0.56677414       1.78006970        1 
H      -2.15661203      -3.90917141       1.02993104        1 
H      -2.98694673      -2.57987863       0.16256750        1 
H      -4.10699312       1.21133513       0.77045170        1 
H      -3.45624974       1.04355167      -0.89170434        1 
H       1.44780885       2.51660367      -0.69543337        1 
C       1.96942151      -1.89963181      -0.86789843        6 
H       2.92416772      -1.89290145      -1.39765500        1 
H       1.97889210      -2.72102340      -0.14654181        1 
H       1.17428620      -2.07533578      -1.59409632        1 
