32
Lattice="0.0 0.0 0.0 0.0 0.0 0.0 0.0 0.0 0.0" Properties=species:S:1:pos:R:3:Z:I:1 pbc="F F F"
C      -0.15337703       0.80405685       0.70930230        6 
C       0.68235136      -0.49489892       0.59256320        6 
C      -1.35622572       0.88379931      -0.21354455        6 
C      -0.02387581      -1.81491580       0.34943938        6 
O      -2.21727617       1.82723371       0.24016298        8 
O      -1.53007244       0.26276311      -1.22923856        8 
O      -1.32815681      -1.75792384       0.68103600        8 
O       0.54409947      -2.84861916       0.08955340        8 
C      -2.06812624      -2.98619303       0.56373982        6 
C      -3.37425082       2.06611660      -0.58187921        6 
C       0.89466032       1.81793242       0.15534910        6 
C       2.14379483       1.87069667       1.07260685        6 
C       2.91819300       0.60418712       0.60259277        6 
C       1.88071481      -0.05147497      -0.34011443        6 
O       1.35749254       1.12290254      -1.00251156        8 
H      -0.46477978       1.03043912       1.72797522        1 
H       1.10910587      -0.68229418       1.58470409        1 
H      -1.63403284      -3.75897577       1.19987160        1 
H      -3.07427697       2.40762226      -1.57396850        1 
H       2.71475110       2.78256353       0.89245541        1 
H       1.87801925       1.84765967       2.13216655        1 
H       3.80395318       0.87806975       0.02647006        1 
H       3.22697651      -0.04986197       1.42050864        1 
H      -3.07943606      -2.74572882       0.88410141        1 
H      -2.06739815      -3.32765203      -0.47231940        1 
H      -3.94324964       2.83689544      -0.06642401        1 
H      -3.96564771       1.15453070      -0.68167213        1 
H       0.47931523       2.78304203      -0.12737871        1 
C       2.41096176      -1.02782379      -1.36112925        6 
H       3.19681896      -0.54041653      -1.94303545        1 
H       2.81891360      -1.91402522      -0.87492362        1 
H       1.61902134      -1.34803461      -2.03908908        1 
