32
Lattice="0.0 0.0 0.0 0.0 0.0 0.0 0.0 0.0 0.0" Properties=species:S:1:pos:R:3:Z:I:1 pbc="F F F"
C      -0.13154736       1.00553219       0.53223685        6 
C       0.48688191      -0.43763881       0.60223460        6 
C      -1.41543631       1.21226787      -0.25078332        6 
C      -0.33030041      -1.58308764       0.03589558        6 
O      -2.35148205       1.78627694       0.55521937        8 
O      -1.61733510       0.94645982      -1.40363727        8 
O      -0.57737551      -2.49329845       1.01819576        8 
O      -0.70825943      -1.72682163      -1.09546331        8 
C      -1.31598743      -3.65983774       0.61283045        6 
C      -3.61851571       2.06729272      -0.06713335        6 
C       1.03827338       1.77259042      -0.16530777        6 
C       2.19485859       1.95282290       0.84308055        6 
C       2.79895721       0.51957729       0.85106617        6 
C       1.86278629      -0.22390930      -0.14157078        6 
O       1.54885161       0.81140526      -1.08433451        8 
H      -0.30294354       1.38162981       1.53912739        1 
H       0.66953604      -0.68527453       1.64648645        1 
H      -0.76541829      -4.21396233      -0.14945536        1 
H      -3.49154733       2.76373613      -0.89759317        1 
H       2.91236670       2.68539362       0.47065559        1 
H       1.84776270       2.28552188       1.82318735        1 
H       3.81713965       0.51660168       0.45754125        1 
H       2.81853723       0.05667956       1.83951294        1 
H      -1.43100912      -4.25898215       1.51364377        1 
H      -2.29016871      -3.37606810       0.21177680        1 
H      -4.23387626       2.50980870       0.71336053        1 
H      -4.07278734       1.14811558      -0.44073079        1 
H       0.73209861       2.66823572      -0.70148302        1 
C       2.46717461      -1.42336831      -0.83640881        6 
H       3.40005261      -1.13341156      -1.32412276        1 
H       2.68849739      -2.21127596      -0.11079547        1 
H       1.78672520      -1.81627642      -1.59170024        1 
