32
Lattice="0.0 0.0 0.0 0.0 0.0 0.0 0.0 0.0 0.0" Properties=species:S:1:pos:R:3:Z:I:1 pbc="F F F"
C       0.15736383       0.98195394       0.84729606        6 
C       0.67338018      -0.49120789       0.71734180        6 
C      -1.27311596       1.32288941       0.45506908        6 
C      -0.27702768      -1.66359364       0.56314099        6 
O      -1.50466766       1.22396937      -0.86201594        8 
O      -2.07791485       1.76941698       1.24094290        8 
O      -1.50692149      -1.34737654       0.13341153        8 
O       0.05903708      -2.79453867       0.83144378        8 
C      -2.44009148      -2.43707943       0.00636173        6 
C      -2.83318630       1.54981517      -1.29549632        6 
C       1.17236015       1.69419685      -0.09791583        6 
C       2.58285733       1.68157611       0.53778627        6 
C       3.03302243       0.22099394       0.24183069        6 
C       1.76217032      -0.36117657      -0.42792546        6 
O       1.29242289       0.76780641      -1.17933396        8 
H       0.25077400       1.32204621       1.87748384        1 
H       1.19697071      -0.74781515       1.63959246        1 
H      -2.58691344      -2.92663515       0.96990840        1 
H      -3.56089589       0.89518299      -0.81218841        1 
H       3.22902852       2.40660664       0.04125854        1 
H       2.56316083       1.92327127       1.60254377        1 
H       3.85937281       0.19930491      -0.47125140        1 
H       3.33395626      -0.33679789       1.12988892        1 
H      -3.36644263      -1.98331205      -0.33830808        1 
H      -2.07487810      -3.16642276      -0.71775938        1 
H      -2.83252848       1.39251170      -2.37198138        1 
H      -3.07584292       2.58727837      -1.05887807        1 
H       0.83711421       2.65784675      -0.47465425        1 
C       1.96725223      -1.55531353      -1.32888388        6 
H       2.73095511      -1.32327422      -2.07403611        1 
H       2.28582387      -2.42363781      -0.74989731        1 
H       1.04277045      -1.81116110      -1.85075239        1 
