32
Lattice="0.0 0.0 0.0 0.0 0.0 0.0 0.0 0.0 0.0" Properties=species:S:1:pos:R:3:Z:I:1 pbc="F F F"
C       0.20817898       1.16786613       0.51995887        6 
C       0.57038363      -0.33293282       0.82836373        6 
C      -1.16012830       1.57075875      -0.01202563        6 
C      -0.55473188      -1.34441900       0.69363886        6 
O      -2.13492044       0.70186641       0.28885954        8 
O      -1.35857329       2.62985475      -0.55834398        8 
O      -0.79285441      -1.70311554      -0.58176470        8 
O      -1.18619081      -1.76354391       1.63330105        8 
C      -1.90689435      -2.58546149      -0.79191755        6 
C      -3.47192180       1.06672330      -0.10187863        6 
C       1.33491924       1.55017356      -0.47986010        6 
C       2.66139081       1.72200037       0.28174422        6 
C       3.00692011       0.24104668       0.60034776        6 
C       1.83556985      -0.52208450      -0.08558311        6 
O       1.53515961       0.33255543      -1.20640438        8 
H       0.30146863       1.75310413       1.43992744        1 
H       0.85741520      -0.41128547       1.87691034        1 
H      -2.83342357      -2.10161752      -0.47843055        1 
H      -3.74528817       2.02996699       0.32999085        1 
H       3.41144136       2.17225338      -0.37020062        1 
H       2.56422189       2.35158488       1.16836763        1 
H       3.95203909      -0.05321163       0.14162778        1 
H       3.07207742       0.02876584       1.66914213        1 
H      -1.92201539      -2.78377530      -1.86152251        1 
H      -1.77900853      -3.51135562      -0.22929699        1 
H      -4.10923785       0.27605456       0.28775172        1 
H      -3.54539588       1.12380712      -1.18892969        1 
H       1.06291575       2.35311190      -1.15881943        1 
C       2.18768797      -1.92219740      -0.53993037        6 
H       3.10947676      -1.89544295      -1.12505708        1 
H       2.35237114      -2.57020458       0.32604582        1 
H       1.39548823      -2.34829701      -1.15167264        1 
