32
Lattice="0.0 0.0 0.0 0.0 0.0 0.0 0.0 0.0 0.0" Properties=species:S:1:pos:R:3:Z:I:1 pbc="F F F"
C       0.27000761       0.86332403       0.88790436        6 
C       0.43688153      -0.64742411       0.52602000        6 
C      -0.74617187       1.67758365       0.07653421        6 
C      -0.81843678      -1.43922790       0.21929860        6 
O      -1.79127225       0.95536812      -0.36396764        8 
O      -0.59777963       2.84425407      -0.19294224        8 
O      -1.69494951      -1.29043385       1.24037618        8 
O      -0.98647322      -2.22414683      -0.67976558        8 
C      -2.94069951      -1.99238508       1.10524217        6 
C      -2.72071242       1.64228776      -1.22420795        6 
C       1.66279012       1.36484670       0.42632849        6 
C       2.81058231       0.67071147       1.19847822        6 
C       2.91522250      -0.68818020       0.44650169        6 
C       1.66449328      -0.62195196      -0.46280095        6 
O       1.71643640       0.76293065      -0.87755130        8 
H       0.06613941       1.01459874       1.94964886        1 
H       0.77280092      -1.13392079       1.44812464        1 
H      -2.77191226      -3.06601687       1.00966040        1 
H      -3.21726564       2.44775701      -0.68115966        1 
H       3.73146314       1.24907127       1.11763335        1 
H       2.58064078       0.55754440       2.26087242        1 
H       3.81065442      -0.72633142      -0.17675197        1 
H       2.91878520      -1.55786056       1.10682218        1 
H      -3.50015432      -1.77121295       2.01179799        1 
H      -3.48260021      -1.63521466       0.22747479        1 
H      -3.43936781       0.88674412      -1.53386967        1 
H      -2.19900863       2.05560686      -2.08781860        1 
H       1.73060561       2.44417799       0.33786542        1 
C       1.67140201      -1.52997580      -1.66912736        6 
H       2.58511058      -1.35104411      -2.24169430        1 
H       1.64399345      -2.57724665      -1.36441745        1 
H       0.80747777      -1.34796613      -2.30623924        1 
