32
Lattice="0.0 0.0 0.0 0.0 0.0 0.0 0.0 0.0 0.0" Properties=species:S:1:pos:R:3:Z:I:1 pbc="F F F"
C       0.21842356       0.93725323       0.83047043        6 
C       0.46900604      -0.58544666       0.55590571        6 
C      -0.82996800       1.64532926      -0.03891881        6 
C      -0.73309051      -1.45189313       0.23602701        6 
O      -1.94393662       0.91369552      -0.22659659        8 
O      -0.67647871       2.73746112      -0.52618046        8 
O      -1.61257665      -1.38137923       1.26212188        8 
O      -0.85391440      -2.22999521      -0.67683130        8 
C      -2.81901422      -2.14417069       1.10803165        6 
C      -2.94686597       1.48927208      -1.08583415        6 
C       1.59716947       1.48205073       0.38692352        6 
C       2.74370205       0.89873360       1.24587820        6 
C       2.94838899      -0.49615662       0.58694325        6 
C       1.73764749      -0.55097345      -0.37729892        6 
O       1.73680843       0.80600336      -0.87386549        8 
H      -0.02736387       1.12205327       1.87845112        1 
H       0.78173118      -1.00556286       1.51737915        1 
H      -2.59469585      -3.20573502       0.99325782        1 
H      -3.30974379       2.43069911      -0.67137194        1 
H       3.63742004       1.51819195       1.16510105        1 
H       2.47473698       0.83913313       2.30351691        1 
H       3.87153796      -0.52572843       0.00512744        1 
H       2.96698636      -1.32157492       1.30193597        1 
H      -3.39282741      -1.96924956       2.01568217        1 
H      -3.37481771      -1.79903106       0.23420250        1 
H      -3.74736419       0.75378452      -1.12671659        1 
H      -2.53574263       1.66620505      -2.08030609        1 
H       1.61366636       2.55554855       0.23014691        1 
C       1.84909537      -1.52902652      -1.52309909        6 
H       2.78160142      -1.33974088      -2.06081433        1 
H       1.85659595      -2.55633453      -1.15446105        1 
H       1.01127901      -1.42889020      -2.21040667        1 
