32
Lattice="0.0 0.0 0.0 0.0 0.0 0.0 0.0 0.0 0.0" Properties=species:S:1:pos:R:3:Z:I:1 pbc="F F F"
C       0.12940964       1.18199415       0.36625586        6 
C       0.57044462      -0.26138617       0.84710382        6 
C      -1.24832280       1.25424025      -0.26493561        6 
C      -0.51304077      -1.31139391       0.67755574        6 
O      -2.19175007       1.34254034       0.69764732        8 
O      -1.49713723       1.22265813      -1.44299024        8 
O      -0.64034897      -1.73223891      -0.59120909        8 
O      -1.22926338      -1.68000508       1.57865987        8 
C      -1.71742227      -2.64640070      -0.86069068        6 
C      -3.56053275       1.33289241       0.25365946        6 
C       1.26204861       1.51218323      -0.63972814        6 
C       2.52807862       1.89705430       0.14879693        6 
C       2.95441319       0.50676768       0.70043447        6 
C       1.90300262      -0.43999608       0.04582014        6 
O       1.60971389       0.23603945      -1.18799293        8 
H       0.12826226       1.85795826       1.22155029        1 
H       0.76176987      -0.23888856       1.91924835        1 
H      -2.67518559      -2.18744831      -0.61105866        1 
H      -3.76183949       2.19342123      -0.38628187        1 
H       3.28070419       2.30518308      -0.52732727        1 
H       2.33678435       2.63637830       0.92916920        1 
H       3.95656069       0.23213510       0.36768926        1 
H       2.93868182       0.45229043       1.79106761        1 
H      -1.65964025      -2.85071574      -1.92715418        1 
H      -1.59744549      -3.56347652      -0.28176971        1 
H      -4.15862706       1.37863193       1.16074422        1 
H      -3.77522119       0.41661715      -0.29856428        1 
H       0.96486711       2.18168317      -1.44253077        1 
C       2.38711382      -1.85290913      -0.19879646        6 
H       3.33443462      -1.82774982      -0.74142481        1 
H       2.54965823      -2.36589391       0.75320606        1 
H       1.66448464      -2.41661676      -0.78670629        1 
