32
Lattice="0.0 0.0 0.0 0.0 0.0 0.0 0.0 0.0 0.0" Properties=species:S:1:pos:R:3:Z:I:1 pbc="F F F"
C      -0.63973090       0.71362756       0.43081690        6 
C       0.64479676      -0.15537929       0.61687684        6 
C      -1.92529707       0.08406111      -0.06621582        6 
C       0.69291384      -1.51972130      -0.05314716        6 
O      -2.97180139       0.73012895       0.52027429        8 
O      -2.07406383      -0.79045607      -0.87600539        8 
O       0.95969498      -2.47013349       0.88533540        8 
O       0.54354223      -1.77157177      -1.21631564        8 
C       1.03670334      -3.82084645       0.39487461        6 
C      -4.28210375       0.31809015       0.09018887        6 
C      -0.11142293       1.87160474      -0.48924164        6 
C       0.59087958       2.89888304       0.41704425        6 
C       1.83790722       2.07388428       0.84672787        6 
C       1.71193689       0.79956558      -0.04367998        6 
O       0.98165301       1.28311587      -1.18518938        8 
H      -0.89679534       1.13865209       1.40074193        1 
H       0.84982462      -0.30330593       1.67564364        1 
H       1.85562097      -3.92290849      -0.31936035        1 
H      -4.39798392       0.46781465      -0.98454361        1 
H       0.87907717       3.77233971      -0.17016227        1 
H      -0.02814676       3.23236878       1.25166180        1 
H       2.76605149       2.59997491       0.61853411        1 
H       1.84632927       1.82951614       1.91103819        1 
H       1.21562164      -4.43940001       1.27198171        1 
H       0.10175834      -4.10167770      -0.09214464        1 
H      -4.97918572       0.94491208       0.64227483        1 
H      -4.44707500      -0.73518541       0.32258057        1 
H      -0.83691780       2.26635884      -1.19707314        1 
C       3.02448219       0.17582557      -0.46450165        6 
H       3.66128356       0.93309154      -0.92687760        1 
H       3.54818383      -0.22957073       0.40565226        1 
H       2.86263261      -0.62424619      -1.18717534        1 
