32
Lattice="0.0 0.0 0.0 0.0 0.0 0.0 0.0 0.0 0.0" Properties=species:S:1:pos:R:3:Z:I:1 pbc="F F F"
C      -0.74767057       0.54995426       0.87234268        6 
C       0.74817927       0.14153380       0.71924893        6 
C      -1.68907688      -0.32951918       0.04564973        6 
C       0.97219204      -1.36249001       0.78711128        6 
O      -2.83800406       0.32388777      -0.22802289        8 
O      -1.50220252      -1.47948811      -0.26166020        8 
O       1.67421422      -1.87609973      -0.23398074        8 
O       0.56853431      -2.01502808       1.71890951        8 
C       1.84063636      -3.30727100      -0.21755220        6 
C      -3.82062301      -0.41448958      -0.97824001        6 
C      -0.68334470       1.94177747       0.19936420        6 
C       0.31337388       2.88494768       0.91383121        6 
C       1.67189915       2.40603259       0.32637729        6 
C       1.23643138       1.12260073      -0.42199824        6 
O      -0.00369665       1.58272968      -1.01699099        8 
H      -1.08714393       0.55056764       1.90926032        1 
H       1.24027569       0.46128723       1.64317489        1 
H       0.86506549      -3.79342091      -0.25360331        1 
H      -3.42285072      -0.68450507      -1.95763923        1 
H       0.10810403       3.92558549       0.66067483        1 
H       0.25649140       2.79001204       2.00089256        1 
H       2.06626567       3.12737506      -0.39207735        1 
H       2.43672340       2.21872150       1.08278797        1 
H       2.42161299      -3.53988526      -1.10743894        1 
H       2.37021025      -3.62164790       0.68284750        1 
H      -4.66948476       0.25769559      -1.08232782        1 
H      -4.10785082      -1.32063661      -0.44331356        1 
H      -1.65154112       2.37183406      -0.03382452        1 
C       2.17408713       0.63564196      -1.50103509        6 
H       2.38518286       1.46058004      -2.18572068        1 
H       3.11411254       0.28820089      -1.06849729        1 
H       1.73216682      -0.18927785      -2.05686172        1 
