32
Lattice="0.0 0.0 0.0 0.0 0.0 0.0 0.0 0.0 0.0" Properties=species:S:1:pos:R:3:Z:I:1 pbc="F F F"
C      -0.34757913       0.99200261       0.88266212        6 
C       0.64685045      -0.20743756       0.69500042        6 
C      -1.80127827       0.67600509       0.56167746        6 
C       0.04948925      -1.50608912       0.20050151        6 
O      -2.14579766       1.00613681      -0.68908309        8 
O      -2.57197258       0.24091238       1.38559489        8 
O       0.77265375      -2.55047548       0.66577716        8 
O      -0.90178088      -1.63618433      -0.52838644        8 
C       0.35435255      -3.85453550       0.21968703        6 
C      -3.46500942       0.61360329      -1.10498147        6 
C       0.31286544       2.05731339      -0.03207968        6 
C       1.58919284       2.59428959       0.65215678        6 
C       2.56558628       1.40329720       0.43704449        6 
C       1.67275433       0.40284072      -0.34391969        6 
O       0.83574201       1.27680180      -1.11306807        8 
H      -0.34859039       1.29955080       1.92867057        1 
H       1.16069690      -0.43157025       1.62857092        1 
H       0.43135711      -3.92847258      -0.86640713        1 
H      -3.55457717      -0.47248376      -1.05769085        1 
H       1.94054191       3.49259696       0.14264958        1 
H       1.42953578       2.84207139       1.70356555        1 
H       3.41613469       1.69398206      -0.18241551        1 
H       2.95241465       0.98029513       1.36594199        1 
H       1.03232092      -4.55618704       0.70043002        1 
H      -0.67621834      -4.04646871       0.52091315        1 
H      -3.55852225       0.96059763      -2.13165747        1 
H      -4.22399674       1.07320845      -0.47003522        1 
H      -0.36979217       2.80769872      -0.42021663        1 
C       2.39732947      -0.57194268      -1.24359416        6 
H       3.04561804      -0.02383540      -1.93054806        1 
H       3.01105300      -1.25677540      -0.65428182        1 
H       1.68768117      -1.15523711      -1.83331539        1 
