32
Lattice="0.0 0.0 0.0 0.0 0.0 0.0 0.0 0.0 0.0" Properties=species:S:1:pos:R:3:Z:I:1 pbc="F F F"
C      -0.15253662       0.90525822       0.64848811        6 
C       0.68503392      -0.40317515       0.65991721        6 
C      -1.40688085       0.95639162      -0.20738940        6 
C       0.05274916      -1.77675589       0.53998177        6 
O      -2.37144050       1.65071779       0.45373575        8 
O      -1.55495464       0.52119014      -1.31731911        8 
O      -1.24321454      -1.77415745       0.20368275        8 
O       0.66012796      -2.78302056       0.83039545        8 
C      -1.88996300      -3.05851011       0.13535825        6 
C      -3.60517713       1.83742192      -0.26146959        6 
C       0.89597523       1.84633915      -0.02770056        6 
C       2.15468783       1.99302425       0.86772461        6 
C       2.92784748       0.68468526       0.52470657        6 
C       1.87693106      -0.06040308      -0.33119186        6 
O       1.34794002       1.03115416      -1.10782434        8 
H      -0.41051141       1.22775389       1.65595887        1 
H       1.12904646      -0.47125340       1.65596986        1 
H      -1.86451129      -3.55078675       1.10881899        1 
H      -3.43533831       2.40084285      -1.18072715        1 
H       2.72239961       2.88152646       0.58885258        1 
H       1.89893245       2.07822213       1.92640518        1 
H       3.80714354       0.89553946      -0.08687292        1 
H       3.24395918       0.11757377       1.40202589        1 
H      -2.91353193      -2.84776959      -0.16558574        1 
H      -1.39611853      -3.69198068      -0.60220629        1 
H      -4.25233178       2.39309589       0.41400697        1 
H      -4.04927217       0.87271389      -0.51250331        1 
H       0.48363501       2.77731161      -0.41202216        1 
C       2.37971887      -1.16150649      -1.23180787        6 
H       3.18657773      -0.78100476      -1.86189770        1 
H       2.75170035      -1.99842854      -0.63915428        1 
H       1.57803351      -1.52459758      -1.87881408        1 
