32
Lattice="0.0 0.0 0.0 0.0 0.0 0.0 0.0 0.0 0.0" Properties=species:S:1:pos:R:3:Z:I:1 pbc="F F F"
C       0.30687176       1.13098719       0.58984500        6 
C       0.56970668      -0.41021032       0.83990944        6 
C      -1.14747962       1.53237220       0.46759689        6 
C      -0.69638900      -1.23460012       0.61970704        6 
O      -1.62303509       1.33224872      -0.77990870        8 
O      -1.82139881       1.92584077       1.38529175        8 
O      -0.69302126      -1.99689041      -0.48415421        8 
O      -1.64309933      -1.16357108       1.36715552        8 
C      -1.90708760      -2.71990219      -0.75826752        6 
C      -3.03422572       1.55728624      -0.95588003        6 
C       1.23593287       1.39702326      -0.63452641        6 
C       2.64922442       1.64852848      -0.08629377        6 
C       2.97609751       0.23161895       0.45983544        6 
C       1.79417387      -0.62904511      -0.10139668        6 
O       1.38104558       0.11881433      -1.26360666        8 
H       0.66349329       1.68144406       1.46042531        1 
H       0.82712906      -0.56450015       1.88897377        1 
H      -2.73269801      -2.02445664      -0.91591801        1 
H      -3.60167289       0.91417691      -0.28137079        1 
H       3.32041091       1.92317874      -0.90162171        1 
H       2.68595165       2.43228569       0.67307852        1 
H       3.92642525      -0.14099732       0.07586672        1 
H       3.02264620       0.19455436       1.55070821        1 
H      -1.70562914      -3.28479818      -1.66578090        1 
H      -2.15204419      -3.38769404       0.06847737        1 
H      -3.23950883       1.30964567      -1.99514922        1 
H      -3.28509549       2.59974066      -0.75352873        1 
H       0.85218014       2.11668921      -1.35293049        1 
C       2.20707933      -2.04211047      -0.45922630        6 
H       3.09741749      -2.00906122      -1.09117595        1 
H       2.45718582      -2.59852083       0.44912220        1 
H       1.41746105      -2.56885940      -0.98652735        1 
