32
Lattice="0.0 0.0 0.0 0.0 0.0 0.0 0.0 0.0 0.0" Properties=species:S:1:pos:R:3:Z:I:1 pbc="F F F"
C      -0.07477622       1.04780968       0.53682846        6 
C       0.67843153      -0.31036659       0.74262748        6 
C      -1.38133557       1.05278589      -0.24250697        6 
C      -0.02194419      -1.65006851       0.62631714        6 
O      -2.40187722       1.40247228       0.58382875        8 
O      -1.53319276       0.80849484      -1.40893080        8 
O      -1.16473527      -1.62957433      -0.06927019        8 
O       0.43133481      -2.65166900       1.13278458        8 
C      -1.84702850      -2.88666195      -0.22963974        6 
C      -3.70928474       1.42560934      -0.01482004        6 
C       1.00029296       1.80636851      -0.30066148        6 
C       2.24789097       2.10082248       0.56634990        6 
C       2.96133838       0.71753153       0.54872360        6 
C       1.93023805      -0.14412404      -0.22182665        6 
O       1.45052456       0.79147687      -1.19710290        8 
H      -0.26150176       1.52500831       1.49777536        1 
H       1.05262675      -0.33005563       1.76686841        1 
H      -2.16014112      -3.27627444       0.74034507        1 
H      -3.74517608       2.14478893      -0.83477936        1 
H       2.86064525       2.87339004       0.10002405        1 
H       1.98610780       2.44167089       1.57065326        1 
H       3.89120892       0.76067655      -0.02129211        1 
H       3.18621294       0.32471080       1.54158938        1 
H      -2.70857548      -2.66526451      -0.85533763        1 
H      -1.19495278      -3.61297437      -0.71605270        1 
H      -4.38978195       1.71897972       0.78184818        1 
H      -3.96854194       0.43662233      -0.39674257        1 
H       0.61227246       2.64961469      -0.86767296        1 
C       2.45667098      -1.38934189      -0.89483474        6 
H       3.29445537      -1.12756265      -1.54468343        1 
H       2.79294660      -2.11705961      -0.15461266        1 
H       1.68004957      -1.85357226      -1.50676335        1 
