32
Lattice="0.0 0.0 0.0 0.0 0.0 0.0 0.0 0.0 0.0" Properties=species:S:1:pos:R:3:Z:I:1 pbc="F F F"
C       0.03815236       1.03955140       0.29126276        6 
C       0.51644786      -0.34675241       0.82016606        6 
C      -1.42600966       1.25654171      -0.01886132        6 
C      -0.22579438      -1.57129892       0.29178076        6 
O      -2.19824118       0.81294502       0.99714332        8 
O      -1.85154611       1.89207380      -0.95144522        8 
O      -1.23238769      -1.26340679      -0.54436863        8 
O       0.13294411      -2.70799289       0.48856029        8 
C      -1.87658765      -2.36289978      -1.21193137        6 
C      -3.61576395       0.98654514       0.83504463        6 
C       1.04974140       1.34745896      -0.84450095        6 
C       2.24980542       2.04657936      -0.19099297        6 
C       2.75644610       0.88886238       0.71493577        6 
C       1.96335587      -0.34453927       0.16799474        6 
O       1.60936053       0.06574773      -1.17088559        8 
H       0.20267991       1.75552741       1.10528947        1 
H       0.54850880      -0.40670386       1.90810356        1 
H      -2.36694767      -3.01404875      -0.48650299        1 
H      -3.86412157       2.04030831       0.70105321        1 
H       2.98881003       2.31182544      -0.94886495        1 
H       1.97825720       2.94997924       0.35907097        1 
H       3.82842122       0.72356373       0.60419559        1 
H       2.55745216       1.05842800       1.77593312        1 
H      -2.60684116      -1.90656225      -1.87634430        1 
H      -1.14634052      -2.94020225      -1.78016201        1 
H      -4.06300261       0.59968593       1.74820842        1 
H      -3.96842708       0.42191994      -0.03025942        1 
H       0.61447007       1.80700289      -1.72714348        1 
C       2.77339404      -1.62159845       0.14979565        6 
H       3.73451736      -1.42261841      -0.33046638        1 
H       2.95835457      -1.96610429       1.16985525        1 
H       2.26828108      -2.42081421      -0.38668794        1 
