32
Lattice="0.0 0.0 0.0 0.0 0.0 0.0 0.0 0.0 0.0" Properties=species:S:1:pos:R:3:Z:I:1 pbc="F F F"
C      -0.46580181       0.85944704       0.50562124        6 
C       0.73771661      -0.08361099       0.85388469        6 
C      -1.76748123       0.22901939       0.05961352        6 
C       0.43151509      -1.56884185       0.69860428        6 
O      -2.78385634       1.09150584       0.30206422        8 
O      -1.92713341      -0.83651609      -0.47925636        8 
O       0.63744611      -2.04520373      -0.53338866        8 
O       0.05880861      -2.24403903       1.63072195        8 
C       0.19212645      -3.39137319      -0.77282635        6 
C      -4.08826298       0.66849658      -0.13939116        6 
C       0.15800370       1.74576666      -0.62676213        6 
C       1.04274012       2.81609280       0.03505984        6 
C       2.21495729       1.93007594       0.54081185        6 
C       1.85687459       0.53161058      -0.05393789        6 
O       1.11180233       0.88337138      -1.24054264        8 
H      -0.71076304       1.48554648       1.36302412        1 
H       0.98689150       0.02926673       1.90880331        1 
H      -0.88713927      -3.44702342      -0.62692686        1 
H      -4.09752566       0.52533942      -1.22116336        1 
H       1.38220403       3.53217436      -0.71543019        1 
H       0.53027029       3.36744300       0.82591664        1 
H       3.17269115       2.26987186       0.14375984        1 
H       2.29645633       1.90272395       1.62927557        1 
H       0.44921887      -3.59941691      -1.80918846        1 
H       0.69290422      -4.09016116      -0.10117429        1 
H      -4.76460779       1.47076088       0.14698831        1 
H      -4.37031052      -0.26529046       0.34879224        1 
H      -0.55353302       2.10459324      -1.36773822        1 
C       3.05930417      -0.32467445      -0.38680188        6 
H       3.76922496       0.25362057      -0.98230331        1 
H       3.56142727      -0.63733727       0.53353599        1 
H       2.76652794      -1.21060753      -0.94494103        1 
