32
Lattice="0.0 0.0 0.0 0.0 0.0 0.0 0.0 0.0 0.0" Properties=species:S:1:pos:R:3:Z:I:1 pbc="F F F"
C      -0.15927708       0.74858194      -0.86776352        6 
C      -0.48531147      -0.75916170      -0.50992607        6 
C       1.15975056       1.25447387      -0.28502820        6 
C       0.70713309      -1.52225626       0.03831047        6 
O       0.99963556       2.27959550       0.56650732        8 
O       2.24213064       0.80905249      -0.58638047        8 
O       1.45963635      -1.96465240      -0.98755665        8 
O       0.93675787      -1.77790751       1.19494009        8 
C       2.71740868      -2.56845960      -0.63738805        6 
C       2.20129945       2.79777918       1.16792885        6 
C      -1.41274137       1.43556331      -0.27940540        6 
C      -2.65804684       1.06150168      -1.11494218        6 
C      -2.94850324      -0.37235155      -0.59457387        6 
C      -1.76391003      -0.60288325       0.38254971        6 
O      -1.60090956       0.71574403       0.94555557        8 
H      -0.07103652       0.86845722      -1.94917258        1 
H      -0.74400871      -1.27352044      -1.43653235        1 
H       2.56531199      -3.41320893       0.03570826        1 
H       2.70518940       2.01451222       1.73528248        1 
H      -3.48182324       1.74234855      -0.89659581        1 
H      -2.46551592       1.10319508      -2.18968581        1 
H      -3.88432838      -0.40761447      -0.03425461        1 
H      -2.99865718      -1.12465284      -1.38439493        1 
H       3.15215413      -2.89814665      -1.57835377        1 
H       3.35863940      -1.82555457      -0.16135767        1 
H       1.87041707       3.59693037       1.82715004        1 
H       2.87655961       3.18193370       0.40192005        1 
H      -1.28954101       2.49253560      -0.06700205        1 
C      -2.02400074      -1.62923485       1.46243777        6 
H      -2.95467712      -1.38208916       1.97855698        1 
H      -2.13258352      -2.62262775       1.01778822        1 
H      -1.20866651      -1.66217707       2.18148610        1 
