32
Lattice="0.0 0.0 0.0 0.0 0.0 0.0 0.0 0.0 0.0" Properties=species:S:1:pos:R:3:Z:I:1 pbc="F F F"
C      -0.88919889      -0.27855227      -0.74346939        6 
C       0.63694824      -0.09286790      -0.57566708        6 
C      -1.82267543       0.56227165       0.11524464        6 
C       1.21926729       1.28868104      -0.34966024        6 
O      -3.05520366       0.56231677      -0.46523899        8 
O      -1.58217955       1.11323399       1.15218508        8 
O       2.53944220       1.24975674      -0.68816515        8 
O       0.68454324       2.28340759       0.05857996        8 
C       3.27651796       2.46605811      -0.47383989        6 
C      -4.08538287       1.25722431       0.25943710        6 
C      -1.00104268      -1.73208966      -0.17125498        6 
C      -0.16027529      -2.73860869      -1.00087277        6 
C       1.26841100      -2.49584261      -0.42587013        6 
C       1.01602738      -1.24872307       0.45106300        6 
O      -0.25329526      -1.59348602       1.03792522        8 
H      -1.20808547      -0.21100532      -1.78303378        1 
H       1.08203939      -0.38160283      -1.53038474        1 
H       3.25926246       2.74278562       0.58179927        1 
H      -4.23321569       0.80690664       1.24264412        1 
H      -0.49964253      -3.75879430      -0.81814253        1 
H      -0.23211898      -2.54997032      -2.07454734        1 
H       1.58836871      -3.32771159       0.20503487        1 
H       2.02825746      -2.32795620      -1.19101066        1 
H       4.29310675       2.25057292      -0.79611811        1 
H       2.85182731       3.28072102      -1.06242580        1 
H      -4.98428473       1.15825692      -0.34571664        1 
H      -3.82019002       2.30815638       0.38484895        1 
H      -2.01848524      -2.04640779       0.05136682        1 
C       2.02331392      -0.92572934       1.52595076        6 
H       2.12287616      -1.77598558       2.20435230        1 
H       2.99787955      -0.71059814       1.08481525        1 
H       1.69683312      -0.05788097       2.10344561        1 
