32
Lattice="0.0 0.0 0.0 0.0 0.0 0.0 0.0 0.0 0.0" Properties=species:S:1:pos:R:3:Z:I:1 pbc="F F F"
C       0.44637766       1.08229653       0.80027956        6 
C       0.45690487      -0.47822302       0.72657296        6 
C      -0.64398712       1.83322886       0.03151024        6 
C      -0.90993236      -1.12845707       0.86667148        6 
O      -1.71648150       1.08445178      -0.26431704        8 
O      -0.52016022       2.98004259      -0.32551884        8 
O      -1.21995496      -2.00728368      -0.10116597        8 
O      -1.63154983      -0.89401095       1.80593327        8 
C      -2.50308601      -2.64804667       0.02014731        6 
C      -2.75191139       1.72294291      -1.03430221        6 
C       1.76094649       1.36724362       0.02987233        6 
C       2.98520681       0.74028754       0.73589867        6 
C       2.88271798      -0.74191861       0.27573807        6 
C       1.50296416      -0.74412957      -0.43074719        6 
O       1.56051999       0.52715530      -1.11907569        8 
H       0.44532587       1.44849267       1.82817695        1 
H       0.92978345      -0.80826350       1.65711318        1 
H      -3.30095628      -1.90437261      -0.00188889        1 
H      -3.12289437       2.60648337      -0.51395732        1 
H       3.90811673       1.20675336       0.38996706        1 
H       2.93786219       0.85971822       1.82081568        1 
H       3.65876781      -0.98268781      -0.45317002        1 
H       2.94327391      -1.46267933       1.09388609        1 
H      -2.57472221      -3.31484899      -0.83658719        1 
H      -2.56428222      -3.21073577       0.95266308        1 
H      -3.53839570       0.97802151      -1.13277408        1 
H      -2.36902971       2.01262057      -2.01390247        1 
H       1.86598092       2.40210729      -0.28020808        1 
C       1.28309406      -1.85920660      -1.42539485        6 
H       2.12162420      -1.88051166      -2.12601798        1 
H       1.22467075      -2.82401571      -0.91840383        1 
H       0.35876903      -1.71242736      -1.98102078        1 
