32
Lattice="0.0 0.0 0.0 0.0 0.0 0.0 0.0 0.0 0.0" Properties=species:S:1:pos:R:3:Z:I:1 pbc="F F F"
C       0.33144394       0.88881300       0.78063370        6 
C       0.51529334      -0.66723829       0.61417233        6 
C      -0.99154318       1.50129472       0.37193984        6 
C      -0.71628983      -1.37310067       0.06761497        6 
O      -1.38280786       1.09891146      -0.84864761        8 
O      -1.60169480       2.29839350       1.04451487        8 
O      -1.68698668      -1.33862242       1.01519006        8 
O      -0.86639317      -1.89258348      -1.00625702        8 
C      -2.95500402      -1.90731491       0.64406439        6 
C      -2.62597714       1.62917562      -1.33909196        6 
C       1.51363947       1.41171862      -0.09857011        6 
C       2.81823048       1.25710111       0.70506785        6 
C       2.99583700      -0.28628802       0.65303876        6 
C       1.81010925      -0.72912068      -0.25969372        6 
O       1.64343719       0.42118347      -1.11575061        8 
H       0.46578660       1.18027350       1.82079851        1 
H       0.69138749      -1.10423998       1.59929092        1 
H      -2.84881192      -2.97152129       0.42797530        1 
H      -3.43680630       1.40101810      -0.64525982        1 
H       3.63477963       1.76942986       0.19382108        1 
H       2.74247813       1.65835580       1.71729179        1 
H       3.94122112      -0.56340675       0.18452262        1 
H       2.95932705      -0.75882183       1.63670111        1 
H      -3.60464334      -1.75371508       1.50288861        1 
H      -3.35525392      -1.40236965      -0.23667787        1 
H      -2.78712321       1.14048864      -2.29715423        1 
H      -2.55620145       2.71077008      -1.46483552        1 
H       1.34487531       2.38749733      -0.54981835        1 
C       2.08190869      -1.97887782      -1.06875411        6 
H       3.03734359      -1.87328887      -1.58777819        1 
H       2.14613301      -2.84785899      -0.40718715        1 
H       1.29199705      -2.15604106      -1.79359078        1 
