32
Lattice="0.0 0.0 0.0 0.0 0.0 0.0 0.0 0.0 0.0" Properties=species:S:1:pos:R:3:Z:I:1 pbc="F F F"
C      -0.93891232       0.28786124       0.93802259        6 
C       0.58327277       0.30612220       0.59472147        6 
C      -1.87675754      -0.82203289       0.48716383        6 
C       1.32456642      -0.98069463       0.28263267        6 
O      -1.64830093      -1.26127411      -0.74835309        8 
O      -2.83593860      -1.14839601       1.15370837        8 
O       2.56439629      -0.90545835       0.84181401        8 
O       0.97111340      -1.92618312      -0.37120359        8 
C       3.43522717      -2.02171525       0.58593681        6 
C      -2.55497835      -2.25275730      -1.25790693        6 
C      -1.37153929       1.58499611       0.17641504        6 
C      -0.71565161       2.83323361       0.81921342        6 
C       0.71464204       2.77317914       0.20795533        6 
C       0.66324895       1.41826902      -0.53766691        6 
O      -0.67427769       1.44354780      -1.06149240        8 
H      -1.09757649       0.38246049       2.01131220        1 
H       1.09843702       0.69860700       1.47104000        1 
H       3.62913710      -2.11877130      -0.48377069        1 
H      -2.56554515      -3.12883502      -0.60803824        1 
H      -1.24371682       3.73904342       0.51933965        1 
H      -0.72199992       2.78655393       1.91012698        1 
H       0.87005995       3.57662880      -0.51481622        1 
H       1.51193718       2.82055767       0.95196897        1 
H       4.35517416      -1.80118252       1.12316484        1 
H       2.98827457      -2.94690523       0.95280375        1 
H      -2.17091875      -2.51156429      -2.24176158        1 
H      -3.56516402      -1.84569245      -1.33130780        1 
H      -2.44186689       1.65951336      -0.00400377        1 
C       1.67073525       1.20727852      -1.64219053        6 
H       1.59351361       2.01396120      -2.37432862        1 
H       2.68466702       1.20433886      -1.23477942        1 
H       1.49289221       0.25803575      -2.15138775        1 
