32
Lattice="0.0 0.0 0.0 0.0 0.0 0.0 0.0 0.0 0.0" Properties=species:S:1:pos:R:3:Z:I:1 pbc="F F F"
C       0.16182306       0.98915653       0.93143461        6 
C       0.47238090      -0.52086567       0.63172931        6 
C      -1.22646355       1.47503876       0.53950004        6 
C      -0.69086931      -1.37038388       0.16717105        6 
O      -1.33094231       1.77211383      -0.75910610        8 
O      -2.10801865       1.65675280       1.34907420        8 
O      -0.66977071      -2.56589101       0.80318490        8 
O      -1.50997479      -1.08980706      -0.67214765        8 
C      -1.69862693      -3.49916039       0.42277577        6 
C      -2.64234773       2.12497040      -1.22941776        6 
C       1.30112749       1.66170801       0.11430796        6 
C       2.65593822       1.39874571       0.81248693        6 
C       2.92870755      -0.07404640       0.39169158        6 
C       1.64857327      -0.40626933      -0.41790919        6 
O       1.37735683       0.84621258      -1.05903888        8 
H       0.24714869       1.18416148       1.99967268        1 
H       0.84909472      -0.99710363       1.53569577        1 
H      -1.60343681      -3.76322925      -0.63175889        1 
H      -3.31527801       1.27494391      -1.10763943        1 
H       3.42124713       2.07279521       0.42557416        1 
H       2.60027149       1.53666132       1.89419197        1 
H       3.79814797      -0.14221680      -0.26512893        1 
H       3.08621212      -0.75053916       1.23365505        1 
H      -1.54350937      -4.37284681       1.05189570        1 
H      -2.68535487      -3.06851566       0.59774352        1 
H      -2.51558336       2.36035122      -2.28371503        1 
H      -3.03303454       2.98480519      -0.68326701        1 
H       1.10651823       2.69274499      -0.16919506        1 
C       1.76607600      -1.52303604      -1.42898355        6 
H       2.58899652      -1.31553907      -2.11590171        1 
H       1.96610702      -2.47243055      -0.92543287        1 
H       0.84655271      -1.61814907      -2.00910303        1 
