32
Lattice="0.0 0.0 0.0 0.0 0.0 0.0 0.0 0.0 0.0" Properties=species:S:1:pos:R:3:Z:I:1 pbc="F F F"
C      -0.18052457       0.91170657       0.89823153        6 
C       0.64302426      -0.40666826       0.68009894        6 
C      -1.54706808       0.92143700       0.19757968        6 
C      -0.17363532      -1.68886113       0.74130682        6 
O      -1.75466825       2.05719168      -0.50048576        8 
O      -2.39492863       0.07402861       0.32170136        8 
O      -0.05119696      -2.48021279      -0.33964666        8 
O      -0.87477198      -1.95407389       1.68421176        8 
C      -0.85060577      -3.68035934      -0.32448136        6 
C      -3.02907941       2.16667219      -1.15904198        6 
C       0.78787523       1.89934016       0.20955080        6 
C       2.17284786       1.91962992       0.90040551        6 
C       2.84606141       0.65819276       0.28767875        6 
C       1.65027710       0.01825406      -0.46294458        6 
O       1.03091391       1.19858598      -1.02121630        8 
H      -0.35809840       1.10079765       1.95828695        1 
H       1.24105044      -0.51623507       1.59099956        1 
H      -1.90528731      -3.42601799      -0.21576576        1 
H      -3.15256141       1.35772601      -1.88047583        1 
H       2.71576631       2.83026050       0.64530801        1 
H       2.08803171       1.87645081       1.98898543        1 
H       3.61755224       0.93467692      -0.43379382        1 
H       3.29184728      -0.00852812       1.02854792        1 
H      -0.66340446      -4.16342525      -1.28110140        1 
H      -0.54945431      -4.32922349       0.49938244        1 
H      -3.01003106       3.12962232      -1.66461871        1 
H      -3.84157671       2.12678060      -0.43192336        1 
H       0.35997496       2.87278876      -0.00195154        1 
C       2.01610946      -0.94498997      -1.56819890        6 
H       2.72436598      -0.45571202      -2.24118905        1 
H       2.48322955      -1.84385135      -1.16139993        1 
H       1.13716550      -1.24753375      -2.13448565        1 
