32
Lattice="0.0 0.0 0.0 0.0 0.0 0.0 0.0 0.0 0.0" Properties=species:S:1:pos:R:3:Z:I:1 pbc="F F F"
C       0.10998400       0.95112475       0.43644246        6 
C       0.59711606      -0.53522446       0.65503115        6 
C      -1.24085179       1.09364055      -0.22901276        6 
C      -0.35626704      -1.55045013       0.04195731        6 
O      -2.13274651       1.65955963       0.61561961        8 
O      -1.50636065       0.78100312      -1.36268691        8 
O      -1.48196492      -1.60339956       0.79933002        8 
O      -0.20710281      -2.20274329      -0.95564128        8 
C      -2.55077133      -2.41315601       0.27497860        6 
C      -3.46425428       1.83345817       0.09732632        6 
C       1.27849109       1.51215388      -0.43398236        6 
C       2.44039673       1.86404309       0.51179136        6 
C       2.90103388       0.43834600       0.92345691        6 
C       2.01810225      -0.47410581       0.01430676        6 
O       1.77418146       0.36978684      -1.12890769        8 
H       0.05378762       1.46438858       1.39485243        1 
H       0.64077587      -0.74933493       1.72418059        1 
H      -2.23888645      -3.45536968       0.19403584        1 
H      -3.45099281       2.46786294      -0.79005452        1 
H       3.22134799       2.39024848      -0.03939870        1 
H       2.13362711       2.48879544       1.35313188        1 
H       3.95564231       0.27617269       0.69706945        1 
H       2.75277686       0.22697218       1.98501960        1 
H      -3.36641694      -2.31295990       0.98808864        1 
H      -2.84798676      -2.04783787      -0.70948688        1 
H      -4.02841980       2.30491303       0.89896052        1 
H      -3.90055501       0.86710902      -0.16097290        1 
H       0.98514181       2.27771468      -1.14884262        1 
C       2.68151263      -1.77337507      -0.38916283        6 
H       3.66590254      -1.56049070      -0.81221540        1 
H       2.82046416      -2.41211203       0.48855899        1 
H       2.08432212      -2.31010907      -1.12186721        1 
