32
Lattice="0.0 0.0 0.0 0.0 0.0 0.0 0.0 0.0 0.0" Properties=species:S:1:pos:R:3:Z:I:1 pbc="F F F"
C      -0.61533839       0.78938641       0.67323886        6 
C       0.73168136       0.00559047       0.75922282        6 
C      -1.70793237       0.07139304      -0.09528144        6 
C       0.51132132      -1.50118716       0.74485581        6 
O      -2.89918700       0.66628575       0.13463696        8 
O      -1.56432541      -0.86072941      -0.84507520        8 
O       1.23815933      -2.17785114      -0.15197521        8 
O      -0.23334764      -2.02904408       1.53788155        8 
C       0.99598745      -3.59692978      -0.21249069        6 
C      -4.02517569       0.11805215      -0.57714887        6 
C      -0.16290549       2.01700396      -0.16748417        6 
C       0.82704103       2.88008134       0.64580908        6 
C       2.13316200       2.04945673       0.50170139        6 
C       1.63136200       0.79657904      -0.26839077        6 
O       0.66005976       1.39759694      -1.15698192        8 
H      -1.00606643       1.07750072       1.64803318        1 
H       1.13951592       0.16606246       1.76141093        1 
H      -0.04462993      -3.78275871      -0.48037330        1 
H      -3.86825170       0.19143665      -1.65441851        1 
H       0.92925829       3.86847257       0.19575567        1 
H       0.50615199       3.01416235       1.68118981        1 
H       2.86651022       2.57751086      -0.11014011        1 
H       2.60256050       1.80114009       1.45538941        1 
H       1.66507634      -3.96961525      -0.98502804        1 
H       1.21468858      -4.06533759       0.74800195        1 
H      -4.88025566       0.71714502      -0.27197198        1 
H      -4.17190534      -0.92814739      -0.30504744        1 
H      -0.97807158       2.55806641      -0.64322197        1 
C       2.69092420       0.07738352      -1.07249016        6 
H       3.23078046       0.80633879      -1.68170341        1 
H       3.40453949      -0.42087291      -0.41243607        1 
H       2.24446908      -0.67304049      -1.72037447        1 
