32
Lattice="0.0 0.0 0.0 0.0 0.0 0.0 0.0 0.0 0.0" Properties=species:S:1:pos:R:3:Z:I:1 pbc="F F F"
C       0.17797365       1.00978191       0.82878155        6 
C       0.73152236      -0.46954370       0.81419120        6 
C      -1.30301862       1.10404787       0.49261703        6 
C      -0.34286580      -1.53344632       0.71543167        6 
O      -1.54018784       1.62295703      -0.72169581        8 
O      -2.17567923       0.77103791       1.25986760        8 
O      -0.96979478      -1.52398797      -0.47885686        8 
O      -0.64690110      -2.26841921       1.62187714        8 
C      -2.10794172      -2.39802747      -0.59898246        6 
C      -2.91855724       1.67871713      -1.12788838        6 
C       1.12880609       1.66902241      -0.19846509        6 
C       2.54611881       1.77997326       0.40729898        6 
C       3.04414162       0.31254647       0.27547479        6 
C       1.79982086      -0.38675785      -0.33481125        6 
O       1.27586283       0.64473645      -1.18955980        8 
H       0.27694154       1.42862000       1.83116929        1 
H       1.22303370      -0.67811779       1.76341180        1 
H      -2.87070354      -2.11428827       0.12780933        1 
H      -3.33727532       0.67178563      -1.16939900        1 
H       3.15803111       2.46371346      -0.18257341        1 
H       2.53260038       2.14368128       1.43721353        1 
H       3.87963868       0.23930339      -0.42301214        1 
H       3.35386041      -0.13124755       1.22321891        1 
H      -2.47043643      -2.26157495      -1.61569240        1 
H      -1.81574914      -3.43555580      -0.43160692        1 
H      -2.90988119       2.12850420      -2.11812539        1 
H      -3.50203663       2.28339143      -0.43227493        1 
H       0.73930106       2.57125471      -0.66058508        1 
C       2.08373408      -1.65150743      -1.11390924        6 
H       2.84895141      -1.45504298      -1.86784109        1 
H       2.45385732      -2.43398507      -0.44540134        1 
H       1.18489704      -2.01131667      -1.61364962        1 
