32
Lattice="0.0 0.0 0.0 0.0 0.0 0.0 0.0 0.0 0.0" Properties=species:S:1:pos:R:3:Z:I:1 pbc="F F F"
C       0.22218890       0.95526495       0.90966335        6 
C       0.47646763      -0.57327396       0.63300721        6 
C      -1.18266725       1.41467298       0.55340992        6 
C      -0.71359922      -1.32397969       0.07602937        6 
O      -1.25690767       2.01135199      -0.64116397        8 
O      -2.12049926       1.28618308       1.30710957        8 
O      -0.91829390      -2.46546471       0.76867252        8 
O      -1.38109563      -0.99778399      -0.87463999        8 
C      -2.02317595      -3.27930326       0.32887231        6 
C      -2.57849187       2.34424023      -1.10253482        6 
C       1.36287294       1.58830991       0.07301672        6 
C       2.70941069       1.34714030       0.79070735        6 
C       2.94822036      -0.15719454       0.47589160        6 
C       1.69242828      -0.50529896      -0.36842692        6 
O       1.44791740       0.72368435      -1.06565748        8 
H       0.33096415       1.15580647       1.97587625        1 
H       0.77428497      -1.07757965       1.55005008        1 
H      -1.86402578      -3.61764340      -0.69624139        1 
H      -3.16183361       1.43091914      -1.22631217        1 
H       3.48864792       1.97309694       0.35385742        1 
H       2.65995724       1.56482073       1.85966513        1 
H       3.84510612      -0.29995078      -0.12971095        1 
H       3.03862012      -0.78053910       1.36731074        1 
H      -2.04911782      -4.12484690       1.01245691        1 
H      -2.95338139      -2.71218371       0.38133714        1 
H      -2.43300303       2.83704816      -2.06116961        1 
H      -3.07856063       3.00806325      -0.39605278        1 
H       1.17378707       2.60653673      -0.25429822        1 
C       1.84365523      -1.65998953      -1.33229573        6 
H       2.70036160      -1.48524734      -1.98641056        1 
H       2.01139673      -2.59186824      -0.78559197        1 
H       0.95238981      -1.76923790      -1.95189699        1 
