32
Lattice="0.0 0.0 0.0 0.0 0.0 0.0 0.0 0.0 0.0" Properties=species:S:1:pos:R:3:Z:I:1 pbc="F F F"
C       0.03845584       1.14571492       0.39052243        6 
C       0.57871028      -0.26872923       0.84240590        6 
C      -1.34250403       1.17688680      -0.23655623        6 
C      -0.35921177      -1.45163870       0.68334364        6 
O      -2.26633385       1.50216445       0.70174127        8 
O      -1.62243698       0.92058424      -1.37783222        8 
O      -0.70062006      -1.67990082      -0.59116353        8 
O      -0.73990110      -2.12675636       1.61259993        8 
C      -1.59947939      -2.77458413      -0.83652277        6 
C      -3.63718918       1.50282426       0.26295115        6 
C       1.14217159       1.56132627      -0.62675912        6 
C       2.39504251       2.00717848       0.15277189        6 
C       2.91851219       0.63384197       0.66326151        6 
C       1.90960653      -0.35649797       0.01334027        6 
O       1.55555049       0.31974198      -1.20224419        8 
H       0.01839643       1.81114868       1.25268139        1 
H       0.79685594      -0.24316630       1.90885089        1 
H      -2.51446031      -2.65658822      -0.25424478        1 
H      -3.78605247       2.24203098      -0.52571111        1 
H       3.10895014       2.47587611      -0.52613742        1 
H       2.17186127       2.71617326       0.95248743        1 
H       3.92552369       0.42876624       0.29673192        1 
H       2.93585998       0.55404686       1.75199821        1 
H      -1.81286260      -2.73465375      -1.90194244        1 
H      -1.12696084      -3.72227900      -0.57121522        1 
H      -4.22379852       1.75692792       1.14293720        1 
H      -3.91614704       0.51726318      -0.11336835        1 
H       0.80010027       2.22749635      -1.41497748        1 
C       2.44930325      -1.74092394      -0.26904770        6 
H       3.37316605      -1.66638430      -0.84640524        1 
H       2.66672741      -2.26250185       0.66663810        1 
H       1.73130402      -2.32679055      -0.84287054        1 
