32
Lattice="0.0 0.0 0.0 0.0 0.0 0.0 0.0 0.0 0.0" Properties=species:S:1:pos:R:3:Z:I:1 pbc="F F F"
C      -0.61841159       0.84925118       0.68400041        6 
C       0.66418659      -0.04199704       0.73237354        6 
C      -1.92512220       0.08210774       0.58133513        6 
C       0.49906464      -1.41127943       0.09640159        6 
O      -2.62103465       0.37371941      -0.52937260        8 
O      -2.31330214      -0.66455494       1.44741268        8 
O       1.57949842      -2.17920901       0.35891141        8 
O      -0.46221666      -1.81378068      -0.50802315        8 
C       1.55129521      -3.51481968      -0.17850911        6 
C      -3.82776065      -0.38529249      -0.72965439        6 
C      -0.25759707       1.88894488      -0.41287956        6 
C       0.57513157       2.99666221       0.25353700        6 
C       1.86034748       2.19639480       0.60653747        6 
C       1.62731873       0.84923384      -0.14696991        6 
O       0.73090916       1.22120974      -1.21016446        8 
H      -0.70298279       1.35401153       1.65079737        1 
H       1.04913554      -0.17953724       1.74209082        1 
H       1.49771553      -3.48729845      -1.26830637        1 
H      -3.58534193      -1.44534242      -0.81476416        1 
H       0.78901510       3.78661993      -0.46806314        1 
H       0.08518841       3.44429275       1.12086474        1 
H       2.75962865       2.68645593       0.23107932        1 
H       1.98975607       2.04197412       1.68003610        1 
H       2.48060461      -3.97699748       0.14684507        1 
H       0.69097720      -4.06191901       0.20926852        1 
H      -4.25311078      -0.01252472      -1.65894927        1 
H      -4.51952909      -0.23429477       0.10022993        1 
H      -1.08699782       2.20408948      -1.03768384        1 
C       2.88162652       0.22058864      -0.71296888        6 
H       3.42899645       0.97181036      -1.28625978        1 
H       3.52359722      -0.14891483       0.08898573        1 
H       2.64795095      -0.61266969      -1.37547448        1 
