32
Lattice="0.0 0.0 0.0 0.0 0.0 0.0 0.0 0.0 0.0" Properties=species:S:1:pos:R:3:Z:I:1 pbc="F F F"
C      -0.87639419      -0.08567820      -0.90544269        6 
C       0.63860257      -0.22192309      -0.60549211        6 
C      -1.61511773       0.94367024      -0.03463523        6 
C       1.47610451       1.04374439      -0.57863360        6 
O      -2.92061633       0.59479548       0.08684946        8 
O      -1.18170018       1.97727773       0.39750717        8 
O       2.68822884       0.81602724      -0.02037459        8 
O       1.16531529       2.09449583      -1.07327459        8 
C       3.59966723       1.93061995      -0.03162002        6 
C      -3.74568683       1.50296652       0.83609025        6 
C      -1.31513556      -1.48772779      -0.39295121        6 
C      -0.56418509      -2.65833121      -1.07674227        6 
C       0.78018936      -2.67783660      -0.28893529        6 
C       0.66312088      -1.35797893       0.50479468        6 
O      -0.72243862      -1.43357554       0.91778386        8 
H      -1.09234389       0.11921086      -1.95527308        1 
H       1.06320532      -0.68800174      -1.50497701        1 
H       3.17053307       2.77836010       0.50411408        1 
H      -3.39022095       1.57680032       1.86506077        1 
H      -1.11854935      -3.58921493      -0.95229376        1 
H      -0.43233674      -2.49351664      -2.14905376        1 
H       0.82026675      -3.51958558       0.40561793        1 
H       1.66512453      -2.71359776      -0.92796306        1 
H       4.49826358       1.57469047       0.46784661        1 
H       3.82290964       2.23120987      -1.05664725        1 
H      -4.74604802       1.07571362       0.80796281        1 
H      -3.73656095       2.49434701       0.38073922        1 
H      -2.38802168      -1.61419190      -0.30722890        1 
C       1.54390869      -1.20275465       1.72064521        6 
H       1.32770756      -2.01704072       2.41640081        1 
H       2.59737040      -1.23670681       1.44514096        1 
H       1.35134763      -0.25300235       2.22245548        1 
