32
Lattice="0.0 0.0 0.0 0.0 0.0 0.0 0.0 0.0 0.0" Properties=species:S:1:pos:R:3:Z:I:1 pbc="F F F"
C      -0.18813005       1.02241713       0.90494908        6 
C       0.61031985      -0.30961071       0.67852721        6 
C      -1.66938500       0.95809614       0.56000652        6 
C      -0.19121427      -1.50084335       0.20212389        6 
O      -1.92780415       1.29520561      -0.70876494        8 
O      -2.52082341       0.70650666       1.38163682        8 
O       0.33083728      -2.63958568       0.71454490        8 
O      -1.12618173      -1.49072534      -0.55909822        8 
C      -0.28228281      -3.86665880       0.27559231        6 
C      -3.28761256       1.12905694      -1.14407230        6 
C       0.63401219       1.99312586       0.01662517        6 
C       1.98773531       2.28558666       0.70169991        6 
C       2.75977372       0.96606641       0.41203355        6 
C       1.69788181       0.14872232      -0.37064752        6 
O       1.00702732       1.17183062      -1.09693748        8 
H      -0.15221013       1.29765486       1.95888783        1 
H       1.10163221      -0.61473264       1.60119350        1 
H      -0.16389808      -3.98593823      -0.80281657        1 
H      -3.56609008       0.07665246      -1.07571879        1 
H       2.47419793       3.14250629       0.23353097        1 
H       1.87889270       2.50000510       1.76687584        1 
H       3.62590458       1.14384889      -0.22796242        1 
H       3.10410843       0.45349498       1.31217029        1 
H       0.24116147      -4.65811837       0.80730564        1 
H      -1.34432597      -3.87206418       0.52360060        1 
H      -3.30061697       1.46047139      -2.18010831        1 
H      -3.96579394       1.72986960      -0.53615651        1 
H       0.08282749       2.85951105      -0.33784371        1 
C       2.24036632      -0.90945962      -1.30499726        6 
H       2.95515724      -0.45731941      -1.99560383        1 
H       2.74942909      -1.69247297      -0.73836365        1 
H       1.43881612      -1.36463304      -1.89079703        1 
