32
Lattice="0.0 0.0 0.0 0.0 0.0 0.0 0.0 0.0 0.0" Properties=species:S:1:pos:R:3:Z:I:1 pbc="F F F"
C       0.32429318       1.04273989       0.64342631        6 
C       0.46340060      -0.52712716       0.59554502        6 
C      -0.87658331       1.65430591      -0.06679820        6 
C      -0.73665885      -1.24653466       0.01523945        6 
O      -2.02771705       1.07797364       0.33674137        8 
O      -0.83150787       2.57986236      -0.83613421        8 
O      -1.48436060      -1.78286747       1.00524645        8 
O      -0.98751427      -1.39201921      -1.15569442        8 
C      -2.68856155      -2.44710116       0.58748041        6 
C      -3.23023970       1.53926612      -0.30839128        6 
C       1.64767940       1.47198270      -0.02785855        6 
C       2.83047023       1.18792466       0.92190687        6 
C       2.95487827      -0.35578707       0.78591783        6 
C       1.80562942      -0.68253731      -0.20840760        6 
O       1.80323103       0.48261152      -1.05162697        8 
H       0.25789529       1.37658364       1.68261666        1 
H       0.58701409      -0.90342527       1.61027271        1 
H      -2.45731621      -3.27990479      -0.07824160        1 
H      -3.34707936       2.61552261      -0.17778693        1 
H       3.72991733       1.69260549       0.56695394        1 
H       2.63719968       1.52218529       1.94387282        1 
H       3.90955748      -0.63794691       0.33854779        1 
H       2.85533358      -0.89048302       1.73258405        1 
H      -3.15689635      -2.80442195       1.50204556        1 
H      -3.34501094      -1.74644025       0.06854997        1 
H      -4.04295195       1.00324665       0.17718373        1 
H      -3.19455607       1.30222049      -1.37264728        1 
H       1.61027183       2.46105296      -0.47440338        1 
C       1.99957229      -1.94422553      -1.01971854        6 
H       2.97577777      -1.91600341      -1.50864386        1 
H       1.96951896      -2.82162579      -0.36675468        1 
H       1.22462746      -2.04269355      -1.77749877        1 
