32
Lattice="0.0 0.0 0.0 0.0 0.0 0.0 0.0 0.0 0.0" Properties=species:S:1:pos:R:3:Z:I:1 pbc="F F F"
C      -0.05566672       1.15932621       0.37135867        6 
C       0.39848391      -0.29496048       0.66853224        6 
C      -1.49921909       1.42165528      -0.00352974        6 
C      -0.38251927      -1.34627926      -0.09904451        6 
O      -2.33527724       0.65468128       0.72569922        8 
O      -1.86696813       2.33191953      -0.70445193        8 
O      -0.13500038      -2.57554119       0.40982761        8 
O      -1.14764358      -1.15140954      -1.00838712        8 
C      -0.79558574      -3.67365058      -0.24533873        6 
C      -3.74035721       0.83412369       0.47596097        6 
C       1.03331739       1.66899168      -0.61120835        6 
C       2.20965078       2.17845012       0.23757112        6 
C       2.67430499       0.83783304       0.87852510        6 
C       1.86007171      -0.21851680       0.06629382        6 
O       1.58380614       0.46688158      -1.16849715        8 
H       0.03424146       1.72201937       1.30875682        1 
H       0.39803444      -0.54995027       1.72712870        1 
H      -0.46844900      -3.75134352      -1.28381276        1 
H      -4.04012643       1.86342766       0.67872464        1 
H       2.98320942       2.59650232      -0.40828362        1 
H       1.91962678       2.93648963       0.96824852        1 
H       3.74443738       0.67414806       0.74411925        1 
H       2.46179998       0.77730565       1.94827696        1 
H      -0.50708449      -4.56146533       0.31320543        1 
H      -1.87760045      -3.53736672      -0.22062001        1 
H      -4.24483749       0.14697280       1.15199432        1 
H      -3.97027051       0.58626160      -0.56137186        1 
H       0.66432389       2.31882113      -1.39927414        1 
C       2.59240997      -1.51547222      -0.19836086        6 
H       3.57579989      -1.29551223      -0.61964833        1 
H       2.72528950      -2.07750088       0.72863613        1 
H       2.05143344      -2.14508250      -0.90489455        1 
