32
Lattice="0.0 0.0 0.0 0.0 0.0 0.0 0.0 0.0 0.0" Properties=species:S:1:pos:R:3:Z:I:1 pbc="F F F"
C       0.05111010       0.93083983       0.44202842        6 
C       0.59564460      -0.53227776       0.65259432        6 
C      -1.31274296       1.05082596      -0.20105333        6 
C      -0.29788853      -1.59166974       0.02476932        6 
O      -2.13551000       1.79629376       0.57522839        8 
O      -1.64395766       0.59510517      -1.26603995        8 
O      -1.33497935      -1.84264520       0.86498517        8 
O      -0.18391910      -2.11080835      -1.05194030        8 
C      -2.35955984      -2.71130416       0.34612704        6 
C      -3.46034665       2.01362653       0.05470698        6 
C       1.19099202       1.54348932      -0.43872375        6 
C       2.34340636       1.94233729       0.50009579        6 
C       2.86132018       0.53583275       0.91076449        6 
C       2.01168348      -0.41027269       0.00560594        6 
O       1.72849844       0.42466032      -1.13645909        8 
H      -0.00515661       1.44271883       1.40108477        1 
H       0.65252181      -0.75041622       1.71952405        1 
H      -1.95165387      -3.70074412       0.13423577        1 
H      -3.41402334       2.53179239      -0.90436176        1 
H       3.09999629       2.49701208      -0.05724469        1 
H       2.01897480       2.55671272       1.34226912        1 
H       3.92107284       0.41552873       0.68199059        1 
H       2.72374555       0.31934723       1.97268543        1 
H      -3.11457540      -2.76888163       1.12752768        1 
H      -2.77815980      -2.28993913      -0.56918817        1 
H      -3.96717963       2.62517608       0.79786170        1 
H      -3.97805090       1.06233805      -0.07788379        1 
H       0.86096215       2.29810162      -1.14960990        1 
C       2.72003143      -1.68313492      -0.40507362        6 
H       3.69000908      -1.43402520      -0.84115378        1 
H       2.89435035      -2.31569066       0.47087844        1 
H       2.13551933      -2.24124823      -1.13280443        1 
