32
Lattice="0.0 0.0 0.0 0.0 0.0 0.0 0.0 0.0 0.0" Properties=species:S:1:pos:R:3:Z:I:1 pbc="F F F"
C      -0.17117724       0.95329882       0.61182057        6 
C       0.74552109      -0.28386848       0.85511270        6 
C      -1.65867360       0.66691491       0.57061393        6 
C       0.21531317      -1.65096562       0.46466542        6 
O      -2.30216604       1.44274628      -0.32343496        8 
O      -2.21672498      -0.12193642       1.29313103        8 
O      -0.66779274      -1.60848188      -0.54587782        8 
O       0.65252881      -2.67949124       0.92576674        8 
C      -1.15296749      -2.87485104      -1.02342231        6 
C      -3.72867209       1.25909312      -0.40490738        6 
C       0.51937814       1.65440938      -0.59378213        6 
C       1.68373387       2.49501396      -0.03615740        6 
C       2.63711823       1.36214805       0.44181646        6 
C       1.93716681       0.08516170      -0.11414728        6 
O       1.21552790       0.59073652      -1.25309743        8 
H      -0.08406495       1.60367239       1.49024030        1 
H       1.08143926      -0.36525685       1.88684420        1 
H      -1.66941765      -3.40801576      -0.22411023        1 
H      -3.96054039       0.22933713      -0.67992018        1 
H       2.13854313       3.08002592      -0.83697643        1 
H       1.37952901       3.17797753       0.75986783        1 
H       3.63134804       1.46350668       0.00426787        1 
H       2.75365014       1.32395118       1.52709185        1 
H      -1.83999899      -2.63442311      -1.83179751        1 
H      -0.32687365      -3.48528228      -1.39132684        1 
H      -4.06529428       1.94804534      -1.17639939        1 
H      -4.19977052       1.49036758       0.55148551        1 
H      -0.15348804       2.14869078      -1.28713721        1 
C       2.86995659      -1.03204882      -0.52233407        6 
H       3.65208171      -0.63642982      -1.17390655        1 
H       3.33597393      -1.48106323       0.35731226        1 
H       2.33713696      -1.81740426      -1.05907999        1 
