32
Lattice="0.0 0.0 0.0 0.0 0.0 0.0 0.0 0.0 0.0" Properties=species:S:1:pos:R:3:Z:I:1 pbc="F F F"
C      -0.30064682       1.01161787       0.48234436        6 
C       0.68806043      -0.16276985       0.82751588        6 
C      -1.61499165       0.59720932      -0.14390350        6 
C      -0.01105261      -1.51302914       0.72876286        6 
O      -2.62379322       1.35802077       0.33367291        8 
O      -1.76532110      -0.24943618      -0.98947508        8 
O       0.37593109      -2.28388894      -0.29099865        8 
O      -0.86411129      -1.83177714       1.52577782        8 
C      -0.38454621      -3.48958688      -0.49734090        6 
C      -3.92991213       1.08047862      -0.20710764        6 
C       0.55702852       1.81371770      -0.54870788        6 
C       1.64206419       2.59290299       0.21823290        6 
C       2.60363408       1.43469696       0.60167982        6 
C       1.92166833       0.19984959      -0.06536715        6 
O       1.29611086       0.79617563      -1.22123593        8 
H      -0.52505027       1.61322511       1.36085034        1 
H       0.95521021      -0.08625159       1.88318540        1 
H      -1.42344919      -3.23395426      -0.70761816        1 
H      -3.94605300       1.26543607      -1.28240459        1 
H       2.12668872       3.31138744      -0.44451578        1 
H       1.24424306       3.13784524       1.07643208        1 
H       3.59353091       1.58313493       0.16787370        1 
H       2.72525593       1.31069577       1.67969484        1 
H       0.07335640      -3.97361431      -1.35724498        1 
H      -0.33288098      -4.13230719       0.38225305        1 
H      -4.60660565       1.75760665       0.30922633        1 
H      -4.20402443       0.04214606      -0.01561434        1 
H      -0.02249237       2.38774652      -1.26932817        1 
C       2.89220433      -0.88851706      -0.46946837        6 
H       3.72147296      -0.44707517      -1.02685397        1 
H       3.29972844      -1.37736807       0.42009301        1 
H       2.40693159      -1.64037826      -1.08524967        1 
