32
Lattice="0.0 0.0 0.0 0.0 0.0 0.0 0.0 0.0 0.0" Properties=species:S:1:pos:R:3:Z:I:1 pbc="F F F"
C      -0.88642069      -0.14606657      -0.80551816        6 
C       0.64039609      -0.11712712      -0.56795293        6 
C      -1.76638903       0.75123108       0.05925325        6 
C       1.38134680       1.19492441      -0.39104072        6 
O      -3.05852083       0.58946581      -0.34222938        8 
O      -1.44278143       1.49081804       0.94463952        8 
O       2.71132481       0.95134938      -0.57509649        8 
O       0.95280552       2.28912258      -0.14792237        8 
C       3.58192395       2.08376389      -0.40810455        6 
C      -4.04012891       1.33806244       0.39551279        6 
C      -1.15447966      -1.59395257      -0.27641273        6 
C      -0.33393007      -2.66629300      -1.04020047        6 
C       1.05246614      -2.56129099      -0.33575803        6 
C       0.84445566      -1.28036172       0.50197209        6 
O      -0.49272831      -1.51121152       0.99223264        8 
H      -1.16164892      -0.01342923      -1.85227223        1 
H       1.08588706      -0.48962567      -1.49455773        1 
H       3.49568265       2.48709670       0.60243466        1 
H      -4.02336838       1.05547670       1.44952478        1 
H      -0.78038976      -3.65239595      -0.90785626        1 
H      -0.28921839      -2.46385033      -2.11301905        1 
H       1.22315977      -3.40945665       0.33052138        1 
H       1.89396062      -2.48626189      -1.02690811        1 
H       4.58696317       1.70687568      -0.58580826        1 
H       3.33313240       2.86697275      -1.12601037        1 
H      -4.99799310       1.08380237      -0.05383066        1 
H      -3.84832959       2.40885976       0.30984498        1 
H      -2.20657145      -1.82534142      -0.13550325        1 
C       1.78483577      -1.02326892       1.65266744        6 
H       1.75368160      -1.86569842       2.34724914        1 
H       2.80647889      -0.89987665       1.29127506        1 
H       1.48862820      -0.11914421       2.18950395        1 
