32
Lattice="0.0 0.0 0.0 0.0 0.0 0.0 0.0 0.0 0.0" Properties=species:S:1:pos:R:3:Z:I:1 pbc="F F F"
C       0.02427361       1.01712591       0.70446667        6 
C       0.73657048      -0.37348200       0.83460286        6 
C      -1.48907543       0.95412857       0.60655790        6 
C      -0.04157585      -1.62634946       0.48851690        6 
O      -1.97048705       1.47192347      -0.53623459        8 
O      -2.18743130       0.53252424       1.49763408        8 
O      -1.02843579      -1.41622414      -0.39821549        8 
O       0.26844859      -2.72257674       0.89215491        8 
C      -1.78263787      -2.57290128      -0.80156385        6 
C      -3.39894367       1.41022272      -0.69789772        6 
C       0.81413337       1.67316301      -0.45801822        6 
C       2.14530752       2.20740999       0.10543467        6 
C       2.89485361       0.87300172       0.38046972        6 
C       1.91126285      -0.17926800      -0.20795070        6 
O       1.24523623       0.55704533      -1.24719864        8 
H       0.19320299       1.57008491       1.63285656        1 
H       1.13171490      -0.53848271       1.83523009        1 
H      -2.26887582      -3.02625231       0.06321025        1 
H      -3.73482819       0.37272256      -0.66346333        1 
H       2.65988671       2.80018481      -0.65229828        1 
H       2.01430381       2.82803467       0.99429900        1 
H       3.84557999       0.82919880      -0.15318199        1 
H       3.09772639       0.69810370       1.43885897        1 
H      -2.52157297      -2.20356846      -1.50927927        1 
H      -1.12967593      -3.30613454      -1.27670879        1 
H      -3.59951688       1.84766234      -1.67335719        1 
H      -3.90012540       1.97507781       0.08948138        1 
H       0.23951953       2.35866622      -1.07284482        1 
C       2.56019506      -1.42628936      -0.76418656        6 
H       3.34037789      -1.14405955      -1.47440062        1 
H       3.00844294      -2.01521155       0.03850901        1 
H       1.83626086      -2.05705180      -1.28208616        1 
