32
Lattice="0.0 0.0 0.0 0.0 0.0 0.0 0.0 0.0 0.0" Properties=species:S:1:pos:R:3:Z:I:1 pbc="F F F"
C      -0.67413658       0.83214451       0.57956802        6 
C       0.64487418       0.00560471       0.67731742        6 
C      -1.76847626       0.16666221      -0.23586250        6 
C       0.42586525      -1.49118772       0.52751598        6 
O      -2.96232700       0.30076967       0.38365232        8 
O      -1.63128126      -0.35206777      -1.31427659        8 
O       1.52402376      -2.15326017       0.12763329        8 
O      -0.59813152      -2.04444287       0.85028022        8 
C       1.40453791      -3.58784813       0.05380390        6 
C      -4.08425145      -0.29801012      -0.29049621        6 
C      -0.15469481       2.08371322      -0.18252450        6 
C       0.80004122       2.89117411       0.72698733        6 
C       2.09705222       2.03675858       0.63017869        6 
C       1.62348393       0.84077518      -0.24195473        6 
O       0.72038617       1.50452998      -1.14892221        8 
H      -1.07804537       1.08405351       1.55821070        1 
H       1.01346574       0.07595390       1.70691427        1 
H       0.62558258      -3.86518141      -0.65717686        1 
H      -4.21864844       0.14232379      -1.27979232        1 
H       0.95112986       3.89368269       0.32439823        1 
H       0.41907761       2.99200554       1.74574404        1 
H       2.88520825       2.57828371       0.10389416        1 
H       2.48943442       1.72359992       1.59979743        1 
H       2.37696600      -3.93991847      -0.28328870        1 
H       1.16246224      -4.00050244       1.03419776        1 
H      -4.94583659      -0.09359565       0.34157644        1 
H      -3.92847603      -1.37307803      -0.39243763        1 
H      -0.92981260       2.66118881      -0.68269299        1 
C       2.71052901       0.14605067      -1.02964247        6 
H       3.25777085       0.89610154      -1.60561259        1 
H       3.40723753      -0.36649887      -0.36487768        1 
H       2.28832237      -0.58680996      -1.71538565        1 
