32
Lattice="0.0 0.0 0.0 0.0 0.0 0.0 0.0 0.0 0.0" Properties=species:S:1:pos:R:3:Z:I:1 pbc="F F F"
C       0.06189944       1.08468399       0.33192888        6 
C       0.53177112      -0.32415172       0.82143473        6 
C      -1.39171383       1.26930954      -0.05113659        6 
C      -0.26496631      -1.53584249       0.36327562        6 
O      -2.19495244       0.90070799       0.97198232        8 
O      -1.79345849       1.78619026      -1.06279756        8 
O      -1.20318834      -1.24373062      -0.55164856        8 
O       0.00089499      -2.66692759       0.69582501        8 
C      -1.90089230      -2.35468233      -1.14190171        6 
C      -3.60848563       1.00941378       0.73420237        6 
C       1.09492642       1.42478065      -0.77332431        6 
C       2.32658192       2.02940430      -0.08176633        6 
C       2.82347892       0.78722401       0.70909012        6 
C       1.95029544      -0.36268411       0.11195405        6 
O       1.59219522       0.14386383      -1.18754022        8 
H       0.18703525       1.77536044       1.17299678        1 
H       0.62440761      -0.38760505       1.90523209        1 
H      -2.43525481      -2.91959053      -0.37653001        1 
H      -3.88225128       2.03705487       0.49117378        1 
H       3.05809922       2.34384364      -0.82808549        1 
H       2.08875845       2.88784306       0.54978513        1 
H       3.87970448       0.58666146       0.52616320        1 
H       2.68680541       0.88196882       1.78863021        1 
H      -2.59469753      -1.91214625      -1.85293432        1 
H      -1.19713066      -3.01382643      -1.65179767        1 
H      -4.08491339       0.69406902       1.65999727        1 
H      -3.90305772       0.35510789      -0.08857275        1 
H       0.68385561       1.96037008      -1.62396247        1 
C       2.66993106      -1.68752438      -0.00186270        6 
H       3.62490940      -1.53095619      -0.50890014        1 
H       2.86226006      -2.10107388       0.99022609        1 
H       2.09099799      -2.41965179      -0.56188472        1 
