32
Lattice="0.0 0.0 0.0 0.0 0.0 0.0 0.0 0.0 0.0" Properties=species:S:1:pos:R:3:Z:I:1 pbc="F F F"
C      -0.43285845       1.05864054       0.57604977        6 
C       0.54655618      -0.16035901       0.64987223        6 
C      -1.73311568       0.84148320      -0.18737565        6 
C      -0.00881702      -1.50778640       0.23207771        6 
O      -2.74423666       0.60318710       0.67922640        8 
O      -1.87164462       0.89518531      -1.38053890        8 
O       0.87769131      -2.48274122       0.54098374        8 
O      -1.09069346      -1.73737562      -0.24559060        8 
C       0.48921533      -3.82427237       0.19140747        6 
C      -4.00154174       0.24404644       0.07909592        6 
C       0.45677266       2.08551279      -0.17222074        6 
C       1.59077001       2.57188418       0.75868836        6 
C       2.55642092       1.35408193       0.71370167        6 
C       1.77835198       0.37072218      -0.19926604        6 
O       1.14416383       1.26596761      -1.12191377        8 
H      -0.69275121       1.39199889       1.58079679        1 
H       0.87536038      -0.30686874       1.68040132        1 
H       0.33761852      -3.90851505      -0.88590601        1 
H      -4.36484911       1.04650379      -0.56480924        1 
H       2.05986107       3.46839776       0.35104571        1 
H       1.23311883       2.80578706       1.76383605        1 
H       3.50239464       1.61658192       0.23643291        1 
H       2.77971806       0.93331376       1.69596607        1 
H       1.31360536      -4.45733070       0.51212599        1 
H      -0.43169366      -4.10174680       0.70618995        1 
H      -4.68494355       0.08098082       0.91005339        1 
H      -3.88179012      -0.66785084      -0.50777120        1 
H      -0.09860965       2.85982023      -0.69505137        1 
C       2.61983417      -0.63691983      -0.94882126        6 
H       3.36946143      -0.10547214      -1.53904109        1 
H       3.12388998      -1.31318732      -0.25736574        1 
H       2.00730659      -1.23167933      -1.62902087        1 
