32
Lattice="0.0 0.0 0.0 0.0 0.0 0.0 0.0 0.0 0.0" Properties=species:S:1:pos:R:3:Z:I:1 pbc="F F F"
C      -0.31649562       0.87387233      -0.84121707        6 
C      -0.46798578      -0.67813775      -0.58363093        6 
C       1.00829172       1.50699808      -0.45659536        6 
C       0.77147705      -1.32399203       0.00979294        6 
O       1.19984503       1.53187097       0.86845731        8 
O       1.78453604       1.97452566      -1.25864289        8 
O       1.55091935      -1.79414273      -0.99505480        8 
O       1.07799767      -1.40122955       1.17123640        8 
C       2.81566579      -2.35895054      -0.60433394        6 
C       2.44348273       2.08770334       1.32839753        6 
C      -1.53034964       1.41149638      -0.02432685        6 
C      -2.81853815       1.13406134      -0.82673872        6 
C      -2.96131702      -0.39988755      -0.61652941        6 
C      -1.75270494      -0.71506280       0.31284501        6 
O      -1.63297449       0.50251306       1.07037751        8 
H      -0.42932652       1.08243520      -1.90391852        1 
H      -0.64617630      -1.17440234      -1.53718298        1 
H       2.66613505      -3.20038457       0.07374309        1 
H       3.28448887       1.53970479       0.90075355        1 
H      -3.65799871       1.67535418      -0.38766509        1 
H      -2.73581038       1.42784673      -1.87506128        1 
H      -3.89039092      -0.64689066      -0.10014335        1 
H      -2.93221499      -0.97217739      -1.54593438        1 
H       3.28394789      -2.68775360      -1.52926539        1 
H       3.43141798      -1.60475373      -0.11158167        1 
H       2.42429952       1.97577026       2.40963337        1 
H       2.51974803       3.13924486       1.04672621        1 
H      -1.41122166       2.42605907       0.34917723        1 
C      -1.94034656      -1.90939229       1.22198944        6 
H      -2.87738698      -1.80582123       1.77359914        1 
H      -1.99231143      -2.82839498       0.63052219        1 
H      -1.11805897      -1.99261604       1.93020606        1 
