32
Lattice="0.0 0.0 0.0 0.0 0.0 0.0 0.0 0.0 0.0" Properties=species:S:1:pos:R:3:Z:I:1 pbc="F F F"
C       0.10953085       1.00974749       0.78398922        6 
C       0.71540853      -0.44187517       0.77653301        6 
C      -1.38320594       1.15476029       0.52999811        6 
C      -0.16086121      -1.65427399       0.52968272        6 
O      -1.68103805       1.33839611      -0.76676008        8 
O      -2.20264145       1.20414822       1.41738666        8 
O      -1.33935752      -1.38382290      -0.04996296        8 
O       0.20605676      -2.77611360       0.79316347        8 
C      -2.20083389      -2.50868499      -0.30656964        6 
C      -3.07490290       1.48015640      -1.07965754        6 
C       1.00556294       1.70503719      -0.27694494        6 
C       2.40204437       1.96297260       0.32491983        6 
C       2.99777342       0.52697312       0.31272742        6 
C       1.84457206      -0.29069469      -0.32879512        6 
O       1.25344627       0.66295699      -1.22588472        8 
H       0.25307253       1.44295934       1.77422726        1 
H       1.18674930      -0.65245391       1.73647628        1 
H      -2.46269047      -3.00518429       0.62855815        1 
H      -3.62355003       0.58705171      -0.77573680        1 
H       2.97088146       2.63310525      -0.32138511        1 
H       2.35530579       2.41008930       1.32000532        1 
H       3.88499594       0.46997339      -0.32025103        1 
H       3.26649671       0.15716354       1.30359417        1 
H      -3.08639145      -2.09112505      -0.77994772        1 
H      -1.70897566      -3.22060291      -0.97019910        1 
H      -3.11813230       1.60719248      -2.15924607        1 
H      -3.49912543       2.34803564      -0.57193883        1 
H       0.54163457       2.55120849      -0.77611792        1 
C       2.26255598      -1.53418946      -1.07785789        6 
H       3.02245590      -1.27167334      -1.81692058        1 
H       2.67358584      -2.27876720      -0.39395617        1 
H       1.41521749      -1.98293356      -1.59818107        1 
