32
Lattice="0.0 0.0 0.0 0.0 0.0 0.0 0.0 0.0 0.0" Properties=species:S:1:pos:R:3:Z:I:1 pbc="F F F"
C      -0.48186031       0.82082168       0.55987036        6 
C       0.76621871      -0.07232352       0.84586606        6 
C      -1.80674435       0.13566628       0.29068036        6 
C       0.61853038      -1.56767548       0.60340353        6 
O      -2.74451140       1.07061223       0.00890349        8 
O      -2.04666936      -1.04408925       0.32734701        8 
O       0.40841191      -1.87571559      -0.68512256        8 
O       0.75179533      -2.38927221       1.47960482        8 
C       0.13647168      -3.25858387      -0.96595702        6 
C      -4.07005718       0.57594574      -0.26158492        6 
C       0.03932721       1.74779256      -0.58500994        6 
C       0.90390582       2.85323961       0.04754074        6 
C       2.13843952       2.02044759       0.49551371        6 
C       1.81978737       0.61497034      -0.09850097        6 
O       1.01108763       0.94076809      -1.24813697        8 
H      -0.68396228       1.43849094       1.43997641        1 
H       1.06548373       0.00995909       1.88954562        1 
H      -0.78102813      -3.56165323      -0.45952152        1 
H      -4.06155493      -0.07272992      -1.13884524        1 
H       1.17735843       3.58834649      -0.71120518        1 
H       0.40331342       3.37589399       0.86522500        1 
H       3.06268051       2.40892125       0.06473646        1 
H       2.26579222       1.98560573       1.57938858        1 
H       0.01500559      -3.31508055      -2.04563529        1 
H       0.96215286      -3.89130697      -0.63668156        1 
H      -4.67704132       1.45976480      -0.44468921        1 
H      -4.45111414       0.01739906       0.59451316        1 
H      -0.72329721       2.07526830      -1.28617518        1 
C       3.03107370      -0.20060582      -0.49223897        6 
H       3.67674499       0.38854150      -1.14724258        1 
H       3.60375530      -0.47845868       0.39674693        1 
H       2.73664625      -1.10755747      -1.01894610        1 
