32
Lattice="0.0 0.0 0.0 0.0 0.0 0.0 0.0 0.0 0.0" Properties=species:S:1:pos:R:3:Z:I:1 pbc="F F F"
C      -0.83035524      -0.50357883      -0.67131409        6 
C       0.63902963       0.00046267      -0.57941984        6 
C      -1.90221097       0.17448566       0.16821751        6 
C       0.92525358       1.44547877      -0.22048578        6 
O      -3.04608352       0.26359505      -0.56743831        8 
O      -1.82251840       0.54115691       1.30668778        8 
O       2.04952901       1.83585981      -0.88515802        8 
O       0.34101911       2.16786793       0.54115063        8 
C       2.51515595       3.16547757      -0.59443102        6 
C      -4.18080561       0.82568817       0.11593533        6 
C      -0.62924170      -1.93548078      -0.07362203        6 
C       0.29100016      -2.78369029      -0.98829423        6 
C       1.69766631      -2.26414773      -0.56977766        6 
C       1.31292958      -1.08999875       0.36045770        6 
O       0.19130759      -1.65402356       1.05928427        8 
H      -1.17508504      -0.53726564      -1.70359676        1 
H       1.07704546      -0.11570279      -1.57071519        1 
H       2.73720246       3.26906202       0.46895165        1 
H      -4.44055698       0.22330326       0.98825668        1 
H       0.17272658      -3.84610923      -0.77209470        1 
H       0.07205690      -2.63122255      -2.04762914        1 
H       2.24116317      -3.01657367       0.00537403        1 
H       2.32213147      -1.95760987      -1.41077956        1 
H       3.41673831       3.29445889      -1.18961534        1 
H       1.76184611       3.90360652      -0.87440536        1 
H      -4.99120476       0.81756541      -0.61012043        1 
H      -3.96373594       1.84488989       0.43940156        1 
H      -1.54873403      -2.42194761       0.24563878        1 
C       2.36225598      -0.60886453       1.33309546        6 
H       2.69176097      -1.43971165       1.96038297        1 
H       3.22673035      -0.21381213       0.79460936        1 
H       1.95689031       0.17340629       1.97756504        1 
