32
Lattice="0.0 0.0 0.0 0.0 0.0 0.0 0.0 0.0 0.0" Properties=species:S:1:pos:R:3:Z:I:1 pbc="F F F"
C      -0.80707723       0.48716673       0.83298401        6 
C       0.71725713       0.20069439       0.72656293        6 
C      -1.64759966      -0.46164461      -0.01769215        6 
C       1.04459625      -1.28430909       0.77788896        6 
O      -2.92081272      -0.01814916      -0.09248541        8 
O      -1.27603434      -1.48616877      -0.53063355        8 
O       1.92096443      -1.70012683      -0.14799534        8 
O       0.58378278      -2.00064935       1.63392757        8 
C       2.21220815      -3.11139524      -0.14223341        6 
C      -3.82418235      -0.82344436      -0.87364327        6 
C      -0.84507363       1.87429306       0.14271522        6 
C       0.03116347       2.90667752       0.89230935        6 
C       1.45092481       2.54290214       0.36840335        6 
C       1.16164596       1.22709583      -0.39458355        6 
O      -0.08809103       1.57764492      -1.04023552        8 
H      -1.18294954       0.48120987       1.85645728        1 
H       1.16150696       0.54483063       1.66659298        1 
H       1.29407609      -3.68009656      -0.29295595        1 
H      -3.48956977      -0.86762337      -1.91121288        1 
H      -0.25303504       3.92400184       0.62052352        1 
H      -0.06503282       2.81203148       1.97660922        1 
H       1.81567379       3.29516798      -0.33388285        1 
H       2.19394639       2.42245197       1.15941752        1 
H       2.90287649      -3.26591287      -0.96842947        1 
H       2.67018417      -3.40470704       0.80353242        1 
H      -4.78929013      -0.32657812      -0.80340614        1 
H      -3.88052884      -1.83500499      -0.46932391        1 
H      -1.84161029       2.21014661      -0.12841460        1 
C       2.17957216       0.82977560      -1.43698218        6 
H       2.33615127       1.67154963      -2.11598372        1 
H       3.13210475       0.57110864      -0.97125155        1 
H       1.83620452      -0.03200898      -2.00627189        1 
