32
Lattice="0.0 0.0 0.0 0.0 0.0 0.0 0.0 0.0 0.0" Properties=species:S:1:pos:R:3:Z:I:1 pbc="F F F"
C      -0.87552169      -0.10729481      -0.87838650        6 
C       0.64208604      -0.18366269      -0.60001194        6 
C      -1.65294967       0.85806509       0.02346527        6 
C       1.43046480       1.11032855      -0.54319318        6 
O      -2.98086273       0.59375131      -0.08369913        8 
O      -1.21933095       1.76197883       0.68322741        8 
O       2.71742854       0.85746327      -0.19728593        8 
O       1.03329044       2.20480966      -0.84115835        8 
C       3.59373159       1.99916299      -0.17472591        6 
C      -3.85245552       1.42828192       0.69878614        6 
C      -1.25326783      -1.53186953      -0.36882563        6 
C      -0.46282893      -2.66468325      -1.07224932        6 
C       0.88999284      -2.63566850      -0.29774343        6 
C       0.72789394      -1.32552392       0.50407657        6 
O      -0.64756554      -1.46509997       0.93357111        8 
H      -1.12366618       0.08777962      -1.92245321        1 
H       1.07977954      -0.62308564      -1.50557714        1 
H       3.23550130       2.73971357       0.54190095        1 
H      -3.65509226       1.28877087       1.76306249        1 
H      -0.97695700      -3.61893525      -0.95211353        1 
H      -0.34890848      -2.48344460      -2.14385604        1 
H       0.96924882      -3.47855251       0.39191509        1 
H       1.76890705      -2.63234634      -0.94580258        1 
H       4.56555844       1.61305560       0.12548901        1 
H       3.65074168       2.45736060      -1.16343460        1 
H      -4.86196756       1.10520808       0.45265812        1 
H      -3.71043559       2.47886617       0.44163431        1 
H      -2.32077479      -1.69869899      -0.27256190        1 
C       1.61519008      -1.12485287       1.70801112        6 
H       1.45527090      -1.94882438       2.40731126        1 
H       2.66508071      -1.09948098       1.41773808        1 
H       1.37196760      -0.18737182       2.21199850        1 
