32
Lattice="0.0 0.0 0.0 0.0 0.0 0.0 0.0 0.0 0.0" Properties=species:S:1:pos:R:3:Z:I:1 pbc="F F F"
C      -0.95370998       0.24705998       0.94411698        6 
C       0.56200252       0.31350795       0.58696359        6 
C      -1.88628452      -0.85503624       0.46418209        6 
C       1.37438868      -0.93886897       0.30848047        6 
O      -1.54926638      -1.39364437      -0.70399409        8 
O      -2.92426756      -1.09263641       1.04490558        8 
O       2.61059370      -0.76779560       0.85746212        8 
O       1.07999376      -1.92593636      -0.31139204        8 
C       3.54857653      -1.83474848       0.63163904        6 
C      -2.45464414      -2.36670453      -1.25131132        6 
C      -1.42217618       1.54811511       0.20912142        6 
C      -0.76012464       2.80350783       0.83225335        6 
C       0.64530217       2.77278133       0.16325611        6 
C       0.59269930       1.41045378      -0.56596181        6 
O      -0.76110448       1.41301185      -1.05001034        8 
H      -1.10834034       0.31679789       2.02033783        1 
H       1.05848750       0.75002833       1.45329576        1 
H       3.71583323      -1.97840751      -0.43718215        1 
H      -2.59005915      -3.19580917      -0.55542075        1 
H      -1.31646924       3.70142984       0.56096609        1 
H      -0.72151294       2.75030861       1.92226466        1 
H       0.75280358       3.57377591      -0.57106070        1 
H       1.47055102       2.84309002       0.87413865        1 
H       4.46676594      -1.52312534       1.12503419        1 
H       3.17863353      -2.76616646       1.06326418        1 
H      -1.98230083      -2.71028345      -2.16849109        1 
H      -3.42364006      -1.91058679      -1.46176558        1 
H      -2.49836530       1.60991056       0.06415185        1 
C       1.56670172       1.19787562      -1.69959848        6 
H       1.44317581       1.98574654      -2.44569682        1 
H       2.59433841       1.22961990      -1.32921833        1 
H       1.39473896       0.23283113      -2.18018820        1 
