32
Lattice="0.0 0.0 0.0 0.0 0.0 0.0 0.0 0.0 0.0" Properties=species:S:1:pos:R:3:Z:I:1 pbc="F F F"
C      -0.31697441       0.98638651       0.61576066        6 
C       0.53806094      -0.32288127       0.58391615        6 
C      -1.59568498       1.02356752      -0.20806569        6 
C      -0.11537738      -1.60326220       0.10648951        6 
O      -2.66213106       1.20863231       0.61723697        8 
O      -1.69711132       0.90940081      -1.39775517        8 
O       0.25179226      -2.62141762       0.93134423        8 
O      -0.80866092      -1.76840064      -0.86209510        8 
C      -0.22130167      -3.92878458       0.56072249        6 
C      -3.94804169       1.24035485      -0.02912812        6 
C       0.71189536       1.97774481      -0.01119321        6 
C       1.89894161       2.19403694       0.95826605        6 
C       2.72259072       0.89390769       0.71752253        6 
C       1.79898492       0.12788674      -0.26343571        6 
O       1.28193432       1.19954498      -1.06228008        8 
H      -0.57072664       1.25123401       1.64086009        1 
H       0.86774901      -0.53454643       1.60001450        1 
H       0.14370336      -4.20039376      -0.43123186        1 
H      -4.00446308       2.07502722      -0.72997296        1 
H       2.46468810       3.08299465       0.67622456        1 
H       1.57404455       2.31718061       1.99370260        1 
H       3.67054647       1.11373163       0.22233738        1 
H       2.93538205       0.33207788       1.62885436        1 
H       0.17603552      -4.60565058       1.31414481        1 
H      -1.31214529      -3.95490075       0.55874748        1 
H      -4.67342569       1.36478724       0.77226114        1 
H      -4.12435429       0.30880382      -0.56923592        1 
H       0.26914389       2.88212502      -0.42282180        1 
C       2.45028411      -0.92650301      -1.12664071        6 
H       3.28696194      -0.49088025      -1.67640270        1 
H       2.82905578      -1.74387675      -0.50769719        1 
H       1.73318544      -1.32761459      -1.84460369        1 
