32
Lattice="0.0 0.0 0.0 0.0 0.0 0.0 0.0 0.0 0.0" Properties=species:S:1:pos:R:3:Z:I:1 pbc="F F F"
C      -0.10102140       0.93406253       0.44041920        6 
C       0.56511340      -0.47495247       0.62533018        6 
C      -1.48930250       1.00130448      -0.15959900        6 
C      -0.16163674      -1.63864602      -0.03252863        6 
O      -2.24394733       1.88445391       0.54529305        8 
O      -1.89599723       0.42425293      -1.13359006        8 
O      -0.85669785      -2.32431668       0.91429858        8 
O      -0.18392799      -1.92405153      -1.19796877        8 
C      -1.67255927      -3.40471130       0.42434137        6 
C      -3.57758766       2.10339181       0.04843249        6 
C       0.97160417       1.66701358      -0.43889187        6 
C       2.08716131       2.16107601       0.49943383        6 
C       2.72915180       0.80218287       0.89822640        6 
C       1.97025941      -0.20499735      -0.02002194        6 
O       1.60967190       0.61341320      -1.15020998        8 
H      -0.16887271       1.42150160       1.41168879        1 
H       0.65075832      -0.70424742       1.68661244        1 
H      -1.05605895      -4.15575052      -0.07203129        1 
H      -3.54782009       2.48971812      -0.97162757        1 
H       2.78998191       2.78260390      -0.05804106        1 
H       1.71547407       2.74017162       1.34661832        1 
H       3.79621542       0.78031363       0.67234683        1 
H       2.60837510       0.56290093       1.95704548        1 
H      -2.15529684      -3.82630042       1.30360667        1 
H      -2.41434845      -3.02746650      -0.28152347        1 
H      -4.02209996       2.83245388       0.72239801        1 
H      -4.14617622       1.17214558       0.06067668        1 
H       0.56608793       2.39575054      -1.13755506        1 
C       2.78123861      -1.40666672      -0.45281093        6 
H       3.72796362      -1.07442758      -0.88399302        1 
H       3.00293761      -2.04258803       0.40943807        1 
H       2.24385335      -1.99162799      -1.19727623        1 
