32
Lattice="0.0 0.0 0.0 0.0 0.0 0.0 0.0 0.0 0.0" Properties=species:S:1:pos:R:3:Z:I:1 pbc="F F F"
C       0.32441476       0.89091153       0.78202449        6 
C       0.51886030      -0.66303929       0.61509062        6 
C      -0.99845735       1.48995589       0.35385812        6 
C      -0.71512162      -1.38163040       0.09127795        6 
O      -1.36891205       1.08064042      -0.87189185        8 
O      -1.62740289       2.28051286       1.01636687        8 
O      -1.69891439      -1.27954749       1.01987513        8 
O      -0.85172268      -1.97485388      -0.94571216        8 
C      -2.96407774      -1.86735184       0.67021668        6 
C      -2.61069951       1.59822616      -1.37899033        6 
C       1.51085811       1.42076230      -0.08549598        6 
C       2.81250145       1.25858555       0.72213197        6 
C       2.99764498      -0.28292440       0.64797021        6 
C       1.81024149      -0.71888845      -0.26538730        6 
O       1.64330570       0.43908918      -1.11122896        8 
H       0.44368289       1.18531784       1.82310658        1 
H       0.70706341      -1.09675302       1.59995942        1 
H      -2.85939427      -2.94415068       0.52858637        1 
H      -3.42829088       1.36275722      -0.69561089        1 
H       3.62974864       1.78242692       0.22386988        1 
H       2.72946479       1.64406015       1.73996609        1 
H       3.94179044      -0.54835343       0.17018979        1 
H       2.96905158      -0.76991671       1.62484100        1 
H      -3.62486667      -1.65286768       1.50715919        1 
H      -3.34965827      -1.42242974      -0.24862109        1 
H      -2.75487463       1.10758522      -2.33878666        1 
H      -2.54995079       2.68035623      -1.50474434        1 
H       1.34511017       2.40077305      -0.52868148        1 
C       2.08155821      -1.95993519      -1.08779614        6 
H       3.03898651      -1.84974156      -1.60226919        1 
H       2.14090003      -2.83723401      -0.43711060        1 
H       1.29343669      -2.12770041      -1.81662692        1 
