32
Lattice="0.0 0.0 0.0 0.0 0.0 0.0 0.0 0.0 0.0" Properties=species:S:1:pos:R:3:Z:I:1 pbc="F F F"
C       0.36183241       1.00161662       0.60743520        6 
C       0.43922255      -0.56724577       0.60533663        6 
C      -0.88212941       1.76301975       0.18231915        6 
C      -0.74108723      -1.30854752      -0.00145576        6 
O      -1.92368060       0.99451772      -0.15760838        8 
O      -0.92638231       2.97106621       0.21384925        8 
O      -1.54124027      -1.77809439       0.98725369        8 
O      -0.95133758      -1.50997178      -1.16917612        8 
C      -2.72881308      -2.46139414       0.55371533        6 
C      -3.12506105       1.67529836      -0.56685071        6 
C       1.59937711       1.37694736      -0.27022521        6 
C       2.87249044       1.23555410       0.58243778        6 
C       2.94765895      -0.31017876       0.71848303        6 
C       1.77508394      -0.78049918      -0.19554031        6 
O       1.69991899       0.27673909      -1.17287382        8 
H       0.52635263       1.35927436       1.62699102        1 
H       0.53676521      -0.92416440       1.62990324        1 
H      -2.47332284      -3.32174672      -0.06661278        1 
H      -3.51535718       2.28210030       0.25136220        1 
H       3.73066628       1.62716212       0.03418630        1 
H       2.80676455       1.76338958       1.53556878        1 
H       3.89272376      -0.70066304       0.33788044        1 
H       2.83339285      -0.65983934       1.74674551        1 
H      -3.23197918      -2.77973167       1.46430037        1 
H      -3.36538054      -1.78505562      -0.01975527        1 
H      -3.82447917       0.88605492      -0.83256212        1 
H      -2.92222390       2.31341453      -1.42736536        1 
H       1.48731811       2.30950201      -0.81701017        1 
C       1.99746524      -2.12197267      -0.85959813        6 
H       2.96847522      -2.12395911      -1.35945221        1 
H       1.99866343      -2.91844189      -0.10926519        1 
H       1.22074350      -2.32849085      -1.59290450        1 
