32
Lattice="0.0 0.0 0.0 0.0 0.0 0.0 0.0 0.0 0.0" Properties=species:S:1:pos:R:3:Z:I:1 pbc="F F F"
C      -0.10546469       0.84319962       0.65889719        6 
C       0.67945467      -0.49544029       0.60311014        6 
C      -1.32519970       0.91386852      -0.23994988        6 
C      -0.09253846      -1.77392823       0.33443004        6 
O      -2.23550914       1.76975377       0.28427454        8 
O      -1.46938056       0.36096486      -1.29947444        8 
O      -1.38810142      -1.65142617       0.68897190        8 
O       0.40833866      -2.82850515       0.02906076        8 
C      -2.20186665      -2.82919836       0.54403496        6 
C      -3.41665399       1.98909943      -0.50826277        6 
C       0.97109710       1.79474291       0.05549300        6 
C       2.19542346       1.88336775       1.00156745        6 
C       2.93884746       0.56053255       0.65448514        6 
C       1.92434286      -0.12375725      -0.29611093        6 
O       1.45142732       1.02026592      -1.04168517        8 
H      -0.39390927       1.12612752       1.66983931        1 
H       1.05676315      -0.69210137       1.61309885        1 
H      -1.80460671      -3.64682420       1.14722181        1 
H      -3.15401129       2.41312441      -1.47876560        1 
H       2.80082863       2.75922736       0.76424180        1 
H       1.90146776       1.95426989       2.05142684        1 
H       3.86228983       0.76093734       0.10795954        1 
H       3.18382866      -0.04755274       1.52785593        1 
H      -3.19184766      -2.54049115       0.89036081        1 
H      -2.23698575      -3.13472773      -0.50255365        1 
H      -4.02482608       2.68692392       0.06333469        1 
H      -3.95141730       1.05037726      -0.66203088        1 
H       0.58280612       2.74709688      -0.30049326        1 
C       2.48801140      -1.16086659      -1.23719365        6 
H       3.30757286      -0.71362174      -1.80463850        1 
H       2.86223626      -2.02151253      -0.68222481        1 
H       1.72738634      -1.51368140      -1.93354352        1 
