32
Lattice="0.0 0.0 0.0 0.0 0.0 0.0 0.0 0.0 0.0" Properties=species:S:1:pos:R:3:Z:I:1 pbc="F F F"
C       0.25508965       1.14178718       0.53624937        6 
C       0.57376670      -0.36676395       0.83952047        6 
C      -1.13057886       1.64948549       0.18118831        6 
C      -0.58241341      -1.34804538       0.71094772        6 
O      -2.03864626       0.70525107      -0.09492056        8 
O      -1.37445793       2.83410748       0.15337678        8 
O      -0.80861650      -1.76270765      -0.54517124        8 
O      -1.21028512      -1.74143321       1.66639492        8 
C      -1.92881320      -2.64229464      -0.72630277        6 
C      -3.36251821       1.16804958      -0.42527158        6 
C       1.27647666       1.44369720      -0.61457257        6 
C       2.66184088       1.66804084       0.01436392        6 
C       2.99825884       0.21961032       0.46434214        6 
C       1.80057880      -0.59655229      -0.11299748        6 
O       1.42435004       0.18322848      -1.26748131        8 
H       0.52045256       1.74336869       1.40651145        1 
H       0.87654615      -0.45949775       1.88240449        1 
H      -2.84881893      -2.15162807      -0.40476460        1 
H      -3.77734103       1.74929258       0.39886267        1 
H       3.36257683       2.01988340      -0.74446351        1 
H       2.64619040       2.39282548       0.83023332        1 
H       3.93128713      -0.13022148       0.02049472        1 
H       3.08392748       0.11147011       1.54746013        1 
H      -1.96016232      -2.85507593      -1.79274088        1 
H      -1.79670133      -3.56138039      -0.15296826        1 
H      -3.94903137       0.26794484      -0.59358298        1 
H      -3.33388493       1.78354205      -1.32513231        1 
H       0.94343865       2.19877616      -1.32264659        1 
C       2.15553932      -2.01794613      -0.49432970        6 
H       3.04892946      -2.01659544      -1.12255783        1 
H       2.37239973      -2.60355333       0.40396487        1 
H       1.34481363      -2.49643641      -1.03890641        1 
