32
Lattice="0.0 0.0 0.0 0.0 0.0 0.0 0.0 0.0 0.0" Properties=species:S:1:pos:R:3:Z:I:1 pbc="F F F"
C      -0.08124011       0.87749638       0.48107003        6 
C       0.64143834      -0.50563529       0.63771082        6 
C      -1.47881586       0.88565430      -0.09717302        6 
C      -0.10428061      -1.67203479       0.00248375        6 
O      -2.19697536       1.88670349       0.46940907        8 
O      -1.91536067       0.17598767      -0.96667328        8 
O      -0.99193188      -2.16682054       0.90148730        8 
O       0.00972671      -2.09549377      -1.11537103        8 
C      -1.89360480      -3.16884332       0.39415155        6 
C      -3.53095897       2.06859974      -0.04257723        6 
C       0.94051607       1.65416246      -0.42235157        6 
C       2.06248392       2.18247473       0.48866418        6 
C       2.76166697       0.84515631       0.86132244        6 
C       2.01498317      -0.18667795      -0.04061537        6 
O       1.59308899       0.62575955      -1.15767672        8 
H      -0.15022757       1.36598211       1.45203564        1 
H       0.75878756      -0.73719620       1.69667875        1 
H      -1.34028807      -4.04504012       0.05267278        1 
H      -3.50431662       2.28698371      -1.11122090        1 
H       2.72818317       2.83150236      -0.08291601        1 
H       1.69175569       2.74358512       1.34830324        1 
H       3.82183279       0.86275585       0.60480545        1 
H       2.68084804       0.59700102       1.92183937        1 
H      -2.54117961      -3.42721298       1.22945616        1 
H      -2.47209825      -2.75995071      -0.43534622        1 
H      -3.94183235       2.90961701       0.51159639        1 
H      -4.12817232       1.17077942       0.12429567        1 
H       0.49066940       2.37393710      -1.10307914        1 
C       2.86582648      -1.35198701      -0.49592164        6 
H       3.79274323      -0.97880763      -0.93705393        1 
H       3.12475888      -1.98160677       0.36061875        1 
H       2.33903200      -1.95574636      -1.23130965        1 
