32
Lattice="0.0 0.0 0.0 0.0 0.0 0.0 0.0 0.0 0.0" Properties=species:S:1:pos:R:3:Z:I:1 pbc="F F F"
C      -0.61311216       0.88475510       0.76447534        6 
C       0.66102375      -0.02969461       0.72515539        6 
C      -1.94720969       0.17828297       0.57486528        6 
C       0.44497254      -1.44351388       0.21276217        6 
O      -2.41917211       0.28906002      -0.67706545        8 
O      -2.53921056      -0.36199070       1.47813584        8 
O       1.58297207      -2.15990597       0.35082562        8 
O      -0.58687105      -1.92751017      -0.17780122        8 
C       1.52034905      -3.53705646      -0.06520170        6 
C      -3.61009938      -0.46243149      -0.96832012        6 
C      -0.25292518       1.97543532      -0.27853039        6 
C       0.69616344       2.98883670       0.38576503        6 
C       1.97974057       2.12305889       0.52491244        6 
C       1.58218981       0.82379738      -0.23884230        6 
O       0.61557814       1.29482975      -1.19240530        8 
H      -0.68799737       1.32048444       1.76251121        1 
H       1.12097744      -0.12444825       1.70905245        1 
H       1.29672779      -3.60379744      -1.13133972        1 
H      -3.40855204      -1.52745046      -0.84509418        1 
H       0.86166998       3.83834479      -0.27886739        1 
H       0.31755508       3.36821876       1.33716790        1 
H       2.83747424       2.59553284       0.04363078        1 
H       2.25134641       1.91982867       1.56291062        1 
H       2.50577387      -3.94701577       0.14451324        1 
H       0.75243713      -4.07043348       0.49660368        1 
H      -3.84973796      -0.23452406      -2.00482608        1 
H      -4.42620491      -0.16509398      -0.30820117        1 
H      -1.10107435       2.38716936      -0.81667820        1 
C       2.72513528       0.14283857      -0.95903979        6 
H       3.22333524       0.87585856      -1.59735137        1 
H       3.45044112      -0.25847480      -0.24910617        1 
H       2.37131592      -0.67598252      -1.58536307        1 
