32
Lattice="0.0 0.0 0.0 0.0 0.0 0.0 0.0 0.0 0.0" Properties=species:S:1:pos:R:3:Z:I:1 pbc="F F F"
C       0.12942437       1.14396286       0.37979005        6 
C       0.53058144      -0.29116071       0.83751027        6 
C      -1.30680699       1.43053517      -0.00860046        6 
C      -0.40600651      -1.42804988       0.48011896        6 
O      -2.17418483       0.68964767       0.70975313        8 
O      -1.64496441       2.33007343      -0.73838242        8 
O      -0.90742771      -1.32014417      -0.76307437        8 
O      -0.60971948      -2.37527994       1.20265175        8 
C      -1.78459972      -2.37550051      -1.18879759        6 
C      -3.57280461       0.94153186       0.48424143        6 
C       1.20022973       1.46775948      -0.69523812        6 
C       2.48733496       1.90274744       0.02934169        6 
C       2.91710052       0.55155399       0.67223362        6 
C       1.89314081      -0.44552841       0.05292338        6 
O       1.56684740       0.17881504      -1.20141418        8 
H       0.26652872       1.81646073       1.23529196        1 
H       0.68297406      -0.35526463       1.91316926        1 
H      -2.64968520      -2.44092547      -0.52641040        1 
H      -3.81836373       1.97914036       0.71488912        1 
H       3.22582809       2.24609929      -0.69673465        1 
H       2.32352866       2.70230905       0.75413757        1 
H       3.93113030       0.27286820       0.38103310        1 
H       2.87324932       0.55790800       1.76343040        1 
H      -2.09073189      -2.10781105      -2.19769832        1 
H      -1.26210510      -3.33342364      -1.18844231        1 
H      -4.09929150       0.26374610       1.15247195        1 
H      -3.83159487       0.73414614      -0.55549770        1 
H       0.84898030       2.10584396      -1.50121010        1 
C       2.40113538      -1.85409776      -0.15660867        6 
H       3.33272085      -1.82920379      -0.72561421        1 
H       2.58866750      -2.33743911       0.80483724        1 
H       1.67825584      -2.45680688      -0.70860725        1 
