32
Lattice="0.0 0.0 0.0 0.0 0.0 0.0 0.0 0.0 0.0" Properties=species:S:1:pos:R:3:Z:I:1 pbc="F F F"
C      -0.07976371       0.69319114       0.86230614        6 
C       0.56783645      -0.67976330       0.49437685        6 
C      -1.28325529       1.05560820      -0.01464574        6 
C      -0.37681253      -1.79694548       0.08801865        6 
O      -1.36751277       2.38702639      -0.20896066        8 
O      -2.12582560       0.28816030      -0.40949266        8 
O      -1.31013877      -1.95631506       1.05143919        8 
O      -0.24034860      -2.56050688      -0.83439094        8 
C      -2.32362282      -2.94084261       0.78877648        6 
C      -2.49640363       2.84164861      -0.97863113        6 
C       1.10914058       1.61577914       0.49893993        6 
C       2.37012463       1.28259415       1.33460658        6 
C       2.93420266       0.05144497       0.57068808        6 
C       1.77852415      -0.24393816      -0.41433487        6 
O       1.42070552       1.10443486      -0.80756559        8 
H      -0.39870151       0.74103063       1.90545900        1 
H       0.98317754      -1.07897377       1.42609061        1 
H      -1.87657700      -3.92214275       0.62315860        1 
H      -2.48389366       2.39064115      -1.97151581        1 
H       3.06972879       2.11921638       1.32471558        1 
H       2.12600361       1.06779065       2.37804763        1 
H       3.83036531       0.31420234       0.00531653        1 
H       3.17029172      -0.79766057       1.21535863        1 
H      -2.95541378      -2.95105201       1.67443677        1 
H      -2.90295544      -2.64815754      -0.08837322        1 
H      -2.38283751       3.92130406      -1.04587239        1 
H      -3.42994987       2.58249538      -0.47667041        1 
H       0.85678759       2.66813854       0.43231520        1 
C       2.13615365      -1.06316361      -1.63147261        6 
H       2.98481057      -0.59326220      -2.13512374        1 
H       2.41170969      -2.07937098      -1.34513676        1 
H       1.29875871      -1.13070994      -2.32402889        1 
