32
Lattice="0.0 0.0 0.0 0.0 0.0 0.0 0.0 0.0 0.0" Properties=species:S:1:pos:R:3:Z:I:1 pbc="F F F"
C       0.24101022       1.14677630       0.63406868        6 
C       0.43110516      -0.41234357       0.62385849        6 
C      -0.98375153       1.64191689      -0.11887026        6 
C      -0.71893119      -1.21044344       0.05223611        6 
O      -2.09414225       1.43118731       0.62820531        8 
O      -0.99939723       2.12055507      -1.22051919        8 
O      -1.03902954      -2.22934627       0.88427402        8 
O      -1.26090573      -1.03100924      -1.00963277        8 
C      -2.08536923      -3.10835096       0.43082993        6 
C      -3.34865757       1.67030639      -0.03787943        6 
C       1.54717155       1.59408426      -0.06296539        6 
C       2.74683307       1.36133935       0.88229860        6 
C       2.92522568      -0.18015210       0.76480834        6 
C       1.76936338      -0.55360107      -0.20156873        6 
O       1.72434944       0.58678992      -1.06610358        8 
H       0.16538222       1.50386509       1.66249734        1 
H       0.58786195      -0.77069748       1.63986496        1 
H      -1.81429411      -3.56574636      -0.52180831        1 
H      -3.41966932       2.70831301      -0.36549147        1 
H       3.62693940       1.89249462       0.51759189        1 
H       2.54774484       1.69913137       1.90194090        1 
H       3.87991932      -0.43394141       0.30021120        1 
H       2.86294790      -0.70533726       1.71975389        1 
H      -2.18441170      -3.86482914       1.20620152        1 
H      -3.01967758      -2.55770443       0.31103039        1 
H      -4.11641710       1.44869926       0.70063479        1 
H      -3.43853119       1.00854264      -0.90078497        1 
H       1.48740241       2.57003321      -0.53655452        1 
C       1.95036871      -1.82978564      -0.99151760        6 
H       2.90205411      -1.80127025      -1.52614111        1 
H       1.95569569      -2.69487750      -0.32273456        1 
H       1.14770772      -1.94955840      -1.72045428        1 
