32
Lattice="0.0 0.0 0.0 0.0 0.0 0.0 0.0 0.0 0.0" Properties=species:S:1:pos:R:3:Z:I:1 pbc="F F F"
C      -0.12389517       0.86984897       0.65104048        6 
C       0.67804668      -0.45816250       0.62180449        6 
C      -1.34854392       0.94617249      -0.24286702        6 
C      -0.03141604      -1.78541451       0.43104954        6 
O      -2.29343356       1.72240756       0.34639900        8 
O      -1.47861452       0.46442076      -1.33699928        8 
O      -1.37048747      -1.68215945       0.47204519        8 
O       0.54842252      -2.84614678       0.41836798        8 
C      -2.11083177      -2.91353913       0.39196658        6 
C      -3.48989877       1.93994860      -0.42224520        6 
C       0.95244591       1.81553294       0.03324220        6 
C       2.18966227       1.90755686       0.96474193        6 
C       2.94108110       0.59277344       0.60120329        6 
C       1.90457151      -0.10173416      -0.31464246        6 
O       1.41815467       1.03167141      -1.06379143        8 
H      -0.40822749       1.16311194       1.66029844        1 
H       1.08653508      -0.59714583       1.62809921        1 
H      -1.85919542      -3.56628896       1.22934781        1 
H      -3.25610687       2.43850602      -1.36440507        1 
H       2.78469888       2.79044048       0.72754889        1 
H       1.90807211       1.96786164       2.01867659        1 
H       3.84455331       0.80281409       0.02568446        1 
H       3.21781467      -0.00978176       1.46864708        1 
H      -3.15812948      -2.62256465       0.43103244        1 
H      -1.89121178      -3.42630851      -0.54515072        1 
H      -4.12386363       2.57020366       0.19793967        1 
H      -3.98306316       0.98996202      -0.63508809        1 
H       0.56457711       2.76674989      -0.32622321        1 
C       2.42886193      -1.16276435      -1.25099283        6 
H       3.24552307      -0.74534659      -1.84423308        1 
H       2.79293800      -2.02392238      -0.69032929        1 
H       1.64457578      -1.50355306      -1.92901787        1 
