32
Lattice="0.0 0.0 0.0 0.0 0.0 0.0 0.0 0.0 0.0" Properties=species:S:1:pos:R:3:Z:I:1 pbc="F F F"
C      -0.53025824       0.96307930       0.52625244        6 
C       0.63058119      -0.07533230       0.70276625        6 
C      -1.72919947       0.44056113      -0.24532818        6 
C       0.16751226      -1.51298308       0.51301053        6 
O      -2.86773485       0.64136713       0.45209756        8 
O      -1.69968002      -0.02447196      -1.35679485        8 
O       1.12408815      -2.33752569       0.06033961        8 
O      -0.93109747      -1.89522046       0.84010255        8 
C       0.75156559      -3.72419805      -0.07214872        6 
C      -4.07174142       0.15517579      -0.16864632        6 
C       0.19651274       2.05842559      -0.30017677        6 
C       1.20562375       2.79806367       0.60455680        6 
C       2.34633977       1.74549710       0.69030871        6 
C       1.77529675       0.57727222      -0.16712462        6 
O       1.03096617       1.29598531      -1.16949742        8 
H      -0.88086948       1.34021623       1.48507299        1 
H       0.94605925      -0.06684730       1.75132744        1 
H      -0.08773208      -3.82381890      -0.76115824        1 
H      -4.22819667       0.63637771      -1.13541237        1 
H       1.54519403       3.71533032       0.12156071        1 
H       0.78145776       3.06383981       1.57512912        1 
H       3.26230611       2.11857077       0.22922450        1 
H       2.58482643       1.44020783       1.71113051        1 
H       1.63492361      -4.22199374      -0.46588758        1 
H       0.47451531      -4.13851418       0.89822232        1 
H      -4.87533331       0.40594025       0.52043727        1 
H      -4.00837424      -0.92497610      -0.30863297        1 
H      -0.46564211       2.69243607      -0.88638668        1 
C       2.82544776      -0.28614137      -0.83134566        6 
H       3.53158897       0.36280431      -1.35510454        1 
H       3.37081518      -0.87453234      -0.09158729        1 
H       2.37503584      -0.96970313      -1.54786938        1 
