32
Lattice="0.0 0.0 0.0 0.0 0.0 0.0 0.0 0.0 0.0" Properties=species:S:1:pos:R:3:Z:I:1 pbc="F F F"
C       0.28394469       1.11164163       0.68037937        6 
C       0.63880271      -0.41946204       0.85251852        6 
C      -1.17493205       1.46493086       0.46053703        6 
C      -0.54963929      -1.36309104       0.75856546        6 
O      -1.60586625       1.15082186      -0.77256066        8 
O      -1.86381295       2.01110231       1.28998255        8 
O      -0.92864184      -1.63991164      -0.49809815        8 
O      -1.10353006      -1.81396899       1.73467109        8 
C      -2.08851259      -2.47759487      -0.64357464        6 
C      -2.98217642       1.45151563      -1.06273253        6 
C       1.22418712       1.49390272      -0.50516723        6 
C       2.65125395       1.66633383       0.04941118        6 
C       3.02063742       0.18448377       0.33876724        6 
C       1.77690744      -0.57800620      -0.21142068        6 
O       1.32687185       0.29050254      -1.26739919        8 
H       0.56003525       1.64541960       1.58822371        1 
H       1.02426444      -0.58116771       1.85848195        1 
H      -2.94297059      -2.03898282      -0.12598761        1 
H      -3.64150904       0.90647439      -0.38504840        1 
H       3.29989565       2.09504931      -0.71594122        1 
H       2.69157929       2.30892304       0.93104772        1 
H       3.91306323      -0.12004526      -0.20969637        1 
H       3.19188742      -0.01793465       1.39778535        1 
H      -2.27184896      -2.52973494      -1.71448791        1 
H      -1.89825054      -3.47224852      -0.23680752        1 
H      -3.13585119       1.13005750      -2.09036739        1 
H      -3.17231840       2.52119148      -0.96077481        1 
H       0.85295248       2.29825515      -1.13559244        1 
C       2.07069547      -1.97069714      -0.72531916        6 
H       2.91294505      -1.93906642      -1.41982636        1 
H       2.33947501      -2.62866019       0.10628866        1 
H       1.20789323      -2.38909901      -1.24030575        1 
