32
Lattice="0.0 0.0 0.0 0.0 0.0 0.0 0.0 0.0 0.0" Properties=species:S:1:pos:R:3:Z:I:1 pbc="F F F"
C      -0.65350625       0.90435684      -0.88824508        6 
C      -0.24975824      -0.58073378      -0.67624059        6 
C       0.13616656       1.97217816      -0.12384402        6 
C       1.23464001      -0.87312900      -0.79849298        6 
O       1.26288079       1.52103414       0.44314826        8 
O      -0.28759477       3.09101791       0.04573938        8 
O       1.63742323      -1.91848421      -0.05128447        8 
O       1.96054467      -0.28749118      -1.56337361        8 
C       3.01951037      -2.29728739      -0.19673749        6 
C       1.97803511       2.45828357       1.26854685        6 
C      -2.03084899       0.87002749      -0.17082880        6 
C      -2.99789621      -0.15655752      -0.80638159        6 
C      -2.50566216      -1.48752307      -0.16767525        6 
C      -1.19899906      -1.01941972       0.51796351        6 
O      -1.63894331       0.24584187       1.06429652        8 
H      -0.70490367       1.19212223      -1.93858118        1 
H      -0.61624221      -1.11399083      -1.56303151        1 
H       3.67118221      -1.46462774       0.07102380        1 
H       2.26844528       3.33315955       0.68587846        1 
H      -4.02874660       0.06615660      -0.52909222        1 
H      -2.94004300      -0.15372846      -1.89748121        1 
H      -3.20375884      -1.84132219       0.59361183        1 
H      -2.34675768      -2.29144820      -0.88946187        1 
H       3.16282563      -3.13284354       0.48495048        1 
H       3.22733023      -2.59851099      -1.22462333        1 
H       2.85693627       1.92123793       1.61797836        1 
H       1.35598577       2.77146765       2.10833651        1 
H      -2.44382953       1.85472866       0.02441119        1 
C      -0.67888347      -1.90185421       1.62758580        6 
H      -1.46588399      -2.02286742       2.37591618        1 
H      -0.39958093      -2.88346845       1.24368584        1 
H       0.19641903      -1.46247762       2.10566434        1 
