32
Lattice="0.0 0.0 0.0 0.0 0.0 0.0 0.0 0.0 0.0" Properties=species:S:1:pos:R:3:Z:I:1 pbc="F F F"
C      -0.71697020       0.74165845       0.91586950        6 
C       0.66231467       0.05535360       0.65254329        6 
C      -1.98858809       0.00408189       0.51513127        6 
C       0.66651145      -1.41674203       0.29619934        6 
O      -2.13923427      -0.11186596      -0.80777798        8 
O      -2.83498356      -0.31526277       1.32008413        8 
O       1.82688660      -1.97331702       0.72450405        8 
O      -0.17511039      -2.04108202      -0.29793295        8 
C       2.01800806      -3.36225452       0.39561711        6 
C      -3.28914748      -0.84711436      -1.25524220        6 
C      -0.52811703       2.03544057       0.06562676        6 
C       0.52790237       2.94854702       0.73424178        6 
C       1.84805843       2.23704465       0.31630986        6 
C       1.30273050       1.00066965      -0.44310415        6 
O       0.15089931       1.54971670      -1.09554527        8 
H      -0.83740835       0.96184234       1.97544006        1 
H       1.26654387       0.12771550       1.55675651        1 
H       2.04933720      -3.49680581      -0.68706077        1 
H      -3.21447666      -1.88448303      -0.92516154        1 
H       0.47167386       3.95807339       0.32499261        1 
H       0.39463561       3.01513396       1.81600708        1 
H       2.42884740       2.85500098      -0.37112722        1 
H       2.48852509       1.96779620       1.15815089        1 
H       2.97067076      -3.63740831       0.84261784        1 
H       1.20955024      -3.96695637       0.80844034        1 
H      -3.26096044      -0.79165128      -2.34122657        1 
H      -4.20830258      -0.40493237      -0.86783723        1 
H      -1.45477228       2.52331233      -0.22695471        1 
C       2.23498199       0.35825966      -1.44303649        6 
H       2.57535038       1.10287613      -2.16582201        1 
H       3.10626580      -0.06095049      -0.93555758        1 
H       1.72773012      -0.44146244      -1.98758904        1 
