32
Lattice="0.0 0.0 0.0 0.0 0.0 0.0 0.0 0.0 0.0" Properties=species:S:1:pos:R:3:Z:I:1 pbc="F F F"
C       0.11898276       1.17034589       0.34155178        6 
C       0.51966544      -0.29080879       0.81230715        6 
C      -1.27192862       1.35258430      -0.24057030        6 
C      -0.58789196      -1.31204268       0.58356659        6 
O      -2.19794358       1.29529489       0.73103955        8 
O      -1.52420160       1.60391440      -1.39409317        8 
O      -0.46369813      -1.99570454      -0.56726780        8 
O      -1.54171814      -1.42296330       1.31581915        8 
C      -1.54035864      -2.89300101      -0.89714845        6 
C      -3.57214533       1.39518885       0.31884387        6 
C       1.25167955       1.48074115      -0.66972988        6 
C       2.50653409       1.88999350       0.11900530        6 
C       2.89628016       0.52376813       0.74777026        6 
C       1.88581742      -0.45708958       0.06972278        6 
O       1.61531912       0.19392312      -1.18541002        8 
H       0.16207714       1.83328009       1.20772769        1 
H       0.66167291      -0.28434984       1.89370644        1 
H      -2.48126056      -2.34620286      -0.97174281        1 
H      -3.76400556       2.36345858      -0.14645106        1 
H       3.27850463       2.24786646      -0.56400989        1 
H       2.31331362       2.67260823       0.85531279        1 
H       3.91725209       0.23906043       0.48949406        1 
H       2.81371283       0.51057377       1.83679835        1 
H      -1.27089004      -3.32198477      -1.85950848        1 
H      -1.63602027      -3.67193821      -0.13911256        1 
H      -4.15438358       1.28076953       1.22997308        1 
H      -3.81294051       0.60044752      -0.38877895        1 
H       0.94781871       2.12869868      -1.48687032        1 
C       2.43849630      -1.85308057      -0.13043118        6 
H       3.41169634      -1.78913047      -0.62201271        1 
H       2.57769185      -2.34278272       0.83787261        1 
H       1.77467302      -2.46060003      -0.73996594        1 
