32
Lattice="0.0 0.0 0.0 0.0 0.0 0.0 0.0 0.0 0.0" Properties=species:S:1:pos:R:3:Z:I:1 pbc="F F F"
C      -0.00157670       0.96176130       0.54682623        6 
C       0.64899197      -0.45828514       0.65353938        6 
C      -1.27554176       1.06879430      -0.27351637        6 
C      -0.19670812      -1.68982113       0.37827083        6 
O      -2.28013514       1.56771759       0.48668308        8 
O      -1.39286122       0.82199801      -1.44594025        8 
O      -1.51625120      -1.42838552       0.40829616        8 
O       0.25039089      -2.80706593       0.28259423        8 
C      -2.39772052      -2.55207287       0.22895136        6 
C      -3.54368598       1.73102098      -0.17932145        6 
C       1.14230661       1.72348211      -0.18396225        6 
C       2.34433293       1.90087328       0.77309876        6 
C       2.97412723       0.47892627       0.72376738        6 
C       1.97351624      -0.27844556      -0.19152899        6 
O       1.60467349       0.75510988      -1.12192985        8 
H      -0.20347643       1.37557374       1.53331516        1 
H       0.93587070      -0.61714124       1.69830788        1 
H      -2.21503990      -3.30542290       0.99623337        1 
H      -3.44777184       2.41001970      -1.02803263        1 
H       3.03039691       2.65594341       0.38703776        1 
H       2.03608788       2.20580038       1.77546753        1 
H       3.95429812       0.49825050       0.24467494        1 
H       3.08495924       0.01328757       1.70496079        1 
H      -3.40308857      -2.14667613       0.31788489        1 
H      -2.24864238      -2.99401128      -0.75690875        1 
H      -4.21653601       2.14454131       0.56901459        1 
H      -3.91228233       0.76735078      -0.53569943        1 
H       0.82093558       2.62013381      -0.70961820        1 
C       2.54343524      -1.46465381      -0.93435952        6 
H       3.42745881      -1.13936794      -1.48795995        1 
H       2.82717618      -2.25833877      -0.24260347        1 
H       1.82118624      -1.87442526      -1.64003273        1 
