32
Lattice="0.0 0.0 0.0 0.0 0.0 0.0 0.0 0.0 0.0" Properties=species:S:1:pos:R:3:Z:I:1 pbc="F F F"
C      -0.94449455       0.49099075      -0.94891671        6 
C       0.10347499      -0.60783171      -0.65584898        6 
C      -0.79451742       1.84258855      -0.25213817        6 
C       1.56004128      -0.19041603      -0.70844564        6 
O       0.21117492       1.89587158       0.62845637        8 
O      -1.61363809       2.72288616      -0.38434578        8 
O       2.36755921      -1.17375851      -0.25172491        8 
O       1.97612181       0.83598486      -1.18280492        8 
C       3.78190902      -0.91984381      -0.34050319        6 
C       0.30437171       3.09623410       1.41407838        6 
C      -2.16494283      -0.16475434      -0.23445874        6 
C      -2.50915558      -1.55591939      -0.82423980        6 
C      -1.45951509      -2.46365544      -0.11424703        6 
C      -0.55849600      -1.39849250       0.55341213        6 
O      -1.56727979      -0.47952728       1.03095235        8 
H      -1.10668118       0.66979823      -2.01152233        1 
H       0.06971535      -1.29365171      -1.51233997        1 
H       4.04234962      -0.01710252       0.21358698        1 
H       0.41150886       3.96734033       0.76673431        1 
H      -3.52936431      -1.83997200      -0.56349314        1 
H      -2.42811307      -1.57286299      -1.91389195        1 
H      -1.92889659      -3.07691869       0.65757167        1 
H      -0.91489571      -3.12140094      -0.79477046        1 
H       4.26075821      -1.79221896       0.09906542        1 
H       4.08373613      -0.80039437      -1.38229626        1 
H       1.18947563       2.96790451       2.03311679        1 
H      -0.58653722       3.21193012       2.03360800        1 
H      -3.00430428       0.51104811      -0.09636964        1 
C       0.30189902      -1.85042760       1.70764232        6 
H      -0.33996957      -2.27334605       2.48410119        1 
H       1.02104566      -2.60496572       1.38912500        1 
H       0.85184622      -1.00854115       2.13148958        1 
