32
Lattice="0.0 0.0 0.0 0.0 0.0 0.0 0.0 0.0 0.0" Properties=species:S:1:pos:R:3:Z:I:1 pbc="F F F"
C       0.33393477       1.08883417       0.51383704        6 
C       0.39306603      -0.46839537       0.61591017        6 
C      -0.94469342       1.77599710       0.07432428        6 
C      -0.72371237      -1.21069462      -0.09384010        6 
O      -2.04053394       1.05124102       0.36244953        8 
O      -0.98449583       2.90982258      -0.33793158        8 
O      -1.32165359      -2.08054483       0.75464240        8 
O      -1.02012347      -1.11537494      -1.25748460        8 
C      -2.38121746      -2.87254888       0.18935975        6 
C      -3.30919974       1.63951744       0.02034401        6 
C       1.57755199       1.41003845      -0.36132751        6 
C       2.82976343       1.35414338       0.53239096        6 
C       2.89837189      -0.17254931       0.82322385        6 
C       1.77275987      -0.73196170      -0.09726915        6 
O       1.72824284       0.23354964      -1.16238825        8 
H       0.48571746       1.50041511       1.51794316        1 
H       0.40901613      -0.79640320       1.65339636        1 
H      -2.00927108      -3.47487850      -0.64087319        1 
H      -3.43524294       2.59787451       0.52565659        1 
H       3.70198981       1.68741569      -0.03175988        1 
H       2.74819302       1.97063073       1.42992357        1 
H       3.86153347      -0.59432372       0.53145289        1 
H       2.73099887      -0.42208889       1.87331112        1 
H      -2.73226207      -3.50951430       0.99844962        1 
H      -3.18598184      -2.22917180      -0.17031551        1 
H      -4.05779469       0.92490171       0.35533541        1 
H      -3.37449982       1.78476882      -1.05868235        1 
H       1.46299838       2.28693772      -0.99203823        1 
C       2.01063157      -2.12652943      -0.63244534        6 
H       2.99185013      -2.17699984      -1.10895251        1 
H       1.98592823      -2.85394206       0.18376982        1 
H       1.25518551      -2.39649210      -1.37090277        1 
