32
Lattice="0.0 0.0 0.0 0.0 0.0 0.0 0.0 0.0 0.0" Properties=species:S:1:pos:R:3:Z:I:1 pbc="F F F"
C      -0.34978311       1.10554806       0.45882531        6 
C       0.50440711      -0.19829818       0.65710774        6 
C      -1.73528433       0.94470127      -0.14631812        6 
C      -0.11095464      -1.47449443       0.10175528        6 
O      -2.62347402       0.60111521       0.81109606        8 
O      -2.03080568       1.16909877      -1.29181755        8 
O       0.72590592      -2.51920435       0.27939829        8 
O      -1.22952886      -1.60719714      -0.32728538        8 
C       0.23146007      -3.80534019      -0.13981375        6 
C      -3.94543404       0.27848091       0.34535316        6 
C       0.58666408       1.96609145      -0.42523730        6 
C       1.66013853       2.60563180       0.47221580        6 
C       2.49796991       1.35086452       0.84390146        6 
C       1.85006176       0.24550113      -0.04637204        6 
O       1.33787212       0.99349072      -1.16089452        8 
H      -0.50456044       1.56983845       1.43494442        1 
H       0.67851271      -0.39820718       1.71645214        1 
H      -0.01297805      -3.79172976      -1.20277959        1 
H      -4.38850810       1.12774320      -0.17704831        1 
H       2.25232680       3.32075317      -0.10100575        1 
H       1.23955068       3.12437086       1.33607250        1 
H       3.54732862       1.47548898       0.57262697        1 
H       2.45697981       1.10016614       1.90594070        1 
H       1.04074674      -4.50424257       0.05960684        1 
H      -0.65910624      -4.07454811       0.43017341        1 
H      -4.51821880       0.03610252       1.23818343        1 
H      -3.89729175      -0.57974839      -0.32657598        1 
H       0.06661285       2.62428123      -1.11524487        1 
C       2.82334484      -0.80511450      -0.53681349        6 
H       3.68190417      -0.30236632      -0.98808171        1 
H       3.17189513      -1.42942571       0.28739998        1 
H       2.36787918      -1.45173684      -1.28574519        1 
