32
Lattice="0.0 0.0 0.0 0.0 0.0 0.0 0.0 0.0 0.0" Properties=species:S:1:pos:R:3:Z:I:1 pbc="F F F"
C      -0.36356184       0.94989421       0.37075173        6 
C       0.62187800      -0.16909394       0.86022687        6 
C      -1.76668808       0.57158577      -0.06371490        6 
C       0.23291051      -1.62654036       0.66855519        6 
O      -2.65810512       1.39009035       0.55561113        8 
O      -2.10136299      -0.27367341      -0.85245190        8 
O       0.06509432      -1.97074970      -0.60887303        8 
O       0.18208273      -2.41147138       1.59078304        8 
C      -0.32647709      -3.32930037      -0.86462486        6 
C      -4.04050032       1.18979327       0.20674899        6 
C       0.47747387       1.62209487      -0.77133654        6 
C       1.46671695       2.59691618      -0.10381765        6 
C       2.42739556       1.58394417       0.58115029        6 
C       1.90830341       0.21802743       0.03825569        6 
O       1.33631478       0.58313077      -1.23042186        8 
H      -0.49487342       1.66489265       1.18101708        1 
H       0.79550927      -0.06761100       1.93043124        1 
H      -1.27957816      -3.54424399      -0.37962573        1 
H      -4.19158234       1.34520028      -0.86270896        1 
H       1.98435687       3.18085804      -0.86674459        1 
H       0.98705784       3.28799726       0.59146258        1 
H       3.46153113       1.73778082       0.26939073        1 
H       2.39727041       1.62981619       1.67151443        1 
H      -0.42538844      -3.39889240      -1.94523470        1 
H       0.43128650      -4.02402103      -0.49746158        1 
H      -4.59473546       1.92650121       0.78409072        1 
H      -4.35697494       0.17897674       0.46893662        1 
H      -0.10539178       2.01490082      -1.60152454        1 
C       2.96676961      -0.85040050      -0.12147391        6 
H       3.79657048      -0.46274609      -0.71612277        1 
H       3.35296464      -1.14936579       0.85652702        1 
H       2.56605871      -1.73007080      -0.62476683        1 
