32
Lattice="0.0 0.0 0.0 0.0 0.0 0.0 0.0 0.0 0.0" Properties=species:S:1:pos:R:3:Z:I:1 pbc="F F F"
C       0.29274766       1.15632399       0.59100834        6 
C       0.53528002      -0.38937091       0.82526031        6 
C      -1.14314911       1.58820432       0.37293754        6 
C      -0.74253863      -1.20353831       0.63276055        6 
O      -1.57689864       1.26335033      -0.86276824        8 
O      -1.82477587       2.13352651       1.20316974        8 
O      -0.64338584      -2.22353741      -0.23177129        8 
O      -1.76164898      -0.94791670       1.22866070        8 
C      -1.84432360      -2.99060475      -0.44452298        6 
C      -2.97158792       1.50507367      -1.12226862        6 
C       1.26791744       1.43395142      -0.59415422        6 
C       2.67092489       1.63820821      -0.00284105        6 
C       2.95975071       0.19736438       0.49851856        6 
C       1.76890761      -0.61983916      -0.10885814        6 
O       1.39470156       0.17106415      -1.25544818        8 
H       0.60922295       1.70183111       1.47905977        1 
H       0.80182395      -0.55149139       1.87267417        1 
H      -2.63436594      -2.35068365      -0.83939745        1 
H      -3.58279307       0.92166304      -0.43163930        1 
H       3.36790049       1.93139725      -0.78960482        1 
H       2.69962129       2.39314389       0.78545588        1 
H       3.90717637      -0.18126880       0.11355865        1 
H       2.99261351       0.12221290       1.58781316        1 
H      -1.57171459      -3.75475409      -1.16909039        1 
H      -2.18012089      -3.44397440       0.48881894        1 
H      -3.13441901       1.18586088      -2.14949192        1 
H      -3.20760815       2.56405172      -1.00714864        1 
H       0.92366571       2.18386716      -1.30206136        1 
C       2.16681376      -2.02270728      -0.52204176        6 
H       3.09824683      -1.97509526      -1.09082335        1 
H       2.33805256      -2.64562135       0.36049769        1 
H       1.40135635      -2.49151215      -1.13206509        1 
