32
Lattice="0.0 0.0 0.0 0.0 0.0 0.0 0.0 0.0 0.0" Properties=species:S:1:pos:R:3:Z:I:1 pbc="F F F"
C      -0.02708778       1.12861228       0.47133315        6 
C       0.63866242      -0.25282329       0.81852756        6 
C      -1.35945035       1.12604155      -0.26175376        6 
C      -0.15998101      -1.53732502       0.73027266        6 
O      -2.36340762       1.39111730       0.61439806        8 
O      -1.54544863       0.90910490      -1.42866634        8 
O      -0.92506926      -1.62391654      -0.36483496        8 
O      -0.06997058      -2.41877244       1.55477746        8 
C      -1.68140522      -2.83600552      -0.53223744        6 
C      -3.69309296       1.37569179       0.06453207        6 
C       1.07144123       1.72501115      -0.45693593        6 
C       2.32038976       2.08829143       0.37836772        6 
C       2.95902648       0.68467230       0.58515642        6 
C       1.92055850      -0.23191596      -0.11033000        6 
O       1.49701893       0.58616765      -1.20865167        8 
H      -0.15577054       1.71176767       1.38254316        1 
H       0.95789716      -0.22935526       1.85961433        1 
H      -2.36265932      -2.97865382       0.30810775        1 
H      -3.79620514       2.13651583      -0.71090546        1 
H       2.97896173       2.74854826      -0.18743567        1 
H       2.06273420       2.58890587       1.31418376        1 
H       3.91603194       0.60420477       0.06574124        1 
H       3.11904362       0.42439100       1.63292079        1 
H      -2.23275229      -2.70119897      -1.45984001        1 
H      -1.01324614      -3.69587083      -0.60073938        1 
H      -4.35655482       1.58844077       0.89999452        1 
H      -3.91541881       0.39719602      -0.36448306        1 
H       0.71333116       2.49428979      -1.13682943        1 
C       2.42899666      -1.56996276      -0.59495567        6 
H       3.29342489      -1.42292634      -1.24546988        1 
H       2.72730607      -2.19517335       0.24985089        1 
H       1.65708116      -2.09244501      -1.16245879        1 
