32
Lattice="0.0 0.0 0.0 0.0 0.0 0.0 0.0 0.0 0.0" Properties=species:S:1:pos:R:3:Z:I:1 pbc="F F F"
C       0.01341899       1.01622494       0.71586379        6 
C       0.74538243      -0.36456938       0.83718707        6 
C      -1.49615263       0.91609367       0.59556662        6 
C      -0.04167438      -1.61758335       0.51448491        6 
O      -1.98482954       1.52236095      -0.49936060        8 
O      -2.18802432       0.38590917       1.43208300        8 
O      -0.91445485      -1.44547886      -0.49393257        8 
O       0.16415693      -2.68327979       1.04482209        8 
C      -1.69650340      -2.59449405      -0.86324265        6 
C      -3.41102509       1.43920296      -0.67679165        6 
C       0.80582251       1.69506929      -0.43072072        6 
C       2.13890443       2.21698157       0.14276375        6 
C       2.89793619       0.87888156       0.37262268        6 
C       1.90376506      -0.16093331      -0.21681125        6 
O       1.23389060       0.59287218      -1.24094547        8 
H       0.15909703       1.56330563       1.65204663        1 
H       1.15161041      -0.52394010       1.83390271        1 
H      -2.33859218      -2.89304270      -0.03311329        1 
H      -3.72084237       0.39476004      -0.73457680        1 
H       2.64635550       2.83656846      -0.59804397        1 
H       2.01005908       2.80849906       1.05166363        1 
H       3.83633970       0.84984396      -0.18352203        1 
H       3.12445035       0.68220655       1.42228370        1 
H      -2.29266143      -2.27624047      -1.71567212        1 
H      -1.04814795      -3.42761842      -1.13771458        1 
H      -3.61712990       1.95424540      -1.61233811        1 
H      -3.92989086       1.92162416       0.15284598        1 
H       0.23321531       2.39349493      -1.03279366        1 
C       2.53301697      -1.41046050      -0.78997904        6 
H       3.30262198      -1.13521554      -1.51424349        1 
H       2.99174816      -2.00536082       0.00279429        1 
H       1.79218236      -2.03058161      -1.29749429        1 
