32
Lattice="0.0 0.0 0.0 0.0 0.0 0.0 0.0 0.0 0.0" Properties=species:S:1:pos:R:3:Z:I:1 pbc="F F F"
C       0.28833884       0.89594870       0.79918215        6 
C       0.52862977      -0.64590490       0.62000045        6 
C      -1.03305045       1.45409295       0.30937216        6 
C      -0.68400762      -1.47114860       0.21882954        6 
O      -1.28309907       1.12314681      -0.97207376        8 
O      -1.76450291       2.14449956       0.97720672        8 
O      -1.77263499      -1.04371115       0.89654994        8 
O      -0.69527891      -2.44503279      -0.48990012        8 
C      -2.99503614      -1.76730324       0.66935696        6 
C      -2.52768315       1.59164339      -1.51736860        6 
C       1.49228689       1.45985063      -0.01143248        6 
C       2.78611076       1.24271410       0.80164015        6 
C       3.00647739      -0.28206198       0.59257056        6 
C       1.79678305      -0.66832661      -0.30852935        6 
O       1.62409881       0.53303048      -1.08830786        8 
H       0.34721698       1.18463262       1.84704410        1 
H       0.79282172      -1.06359960       1.59713064        1 
H      -2.88876437      -2.80553057       0.98761403        1 
H      -3.36631982       1.20075724      -0.93812615        1 
H       3.60346524       1.82590629       0.37511371        1 
H       2.67498438       1.53067093       1.84894003        1 
H       3.93491603      -0.47868282       0.05404984        1 
H       3.03139320      -0.85076190       1.52434580        1 
H      -3.74686559      -1.25629948       1.26646642        1 
H      -3.25996287      -1.74291507      -0.38891743        1 
H      -2.55586745       1.21543747      -2.53759068        1 
H      -2.56557556       2.68197016      -1.50812094        1 
H       1.34351602       2.46411553      -0.40346575        1 
C       2.03737853      -1.85418539      -1.21567389        6 
H       2.97570285      -1.70210325      -1.75482649        1 
H       2.11154719      -2.77517596      -0.63383249        1 
H       1.22728148      -1.97604431      -1.93090757        1 
