32
Lattice="0.0 0.0 0.0 0.0 0.0 0.0 0.0 0.0 0.0" Properties=species:S:1:pos:R:3:Z:I:1 pbc="F F F"
C       0.15139346       1.24696287       0.57906150        6 
C       0.59808516      -0.24705555       0.81513471        6 
C      -1.11793500       1.50043037      -0.23891302        6 
C      -0.53397577      -1.25700415       0.89481133        6 
O      -2.16569275       0.79369744       0.21625415        8 
O      -1.19673199       2.28300403      -1.15333838        8 
O      -0.71301256      -1.97280966      -0.23156485        8 
O      -1.25636102      -1.34532690       1.85679737        8 
C      -1.84760945      -2.85774008      -0.24043093        6 
C      -3.41383892       0.97680004      -0.47633052        6 
C       1.36479860       1.75077834      -0.23182872        6 
C       2.64673467       1.73868816       0.63031222        6 
C       3.03034916       0.23390314       0.58539714        6 
C       1.81932034      -0.37268379      -0.17296479        6 
O       1.55821395       0.65929766      -1.14575353        8 
H       0.01544012       1.75826726       1.53514608        1 
H       0.98871960      -0.28244433       1.83466258        1 
H      -2.76781024      -2.28893453      -0.09928076        1 
H      -3.72364525       2.02193583      -0.43661651        1 
H       3.41761673       2.36457415       0.17946027        1 
H       2.46647771       2.10963318       1.64218560        1 
H       3.93594535       0.07560016      -0.00321659        1 
H       3.18229151      -0.21252047       1.57013630        1 
H      -1.83528724      -3.33461314      -1.21814726        1 
H      -1.76127387      -3.60213775       0.55235725        1 
H      -4.12727389       0.34488731       0.04815867        1 
H      -3.31642403       0.66998503      -1.51898838        1 
H       1.16814240       2.66141178      -0.78868295        1 
C       2.09781739      -1.69381978      -0.85464043        6 
H       3.00902185      -1.60524159      -1.45060696        1 
H       2.24780983      -2.48121679      -0.11089520        1 
H       1.27330759      -1.98446541      -1.50075963        1 
