32
Lattice="0.0 0.0 0.0 0.0 0.0 0.0 0.0 0.0 0.0" Properties=species:S:1:pos:R:3:Z:I:1 pbc="F F F"
C      -0.75351188       0.57132392       0.55023270        6 
C       0.70080339       0.03359528       0.64976045        6 
C      -1.84824138      -0.44487468       0.30166007        6 
C       0.95759341      -1.27342323      -0.08174027        6 
O      -3.00264863       0.18137009      -0.01956917        8 
O      -1.74706135      -1.64096503       0.40025736        8 
O       1.71191732      -2.09476811       0.68712128        8 
O       0.60650313      -1.54774326      -1.19887720        8 
C       2.03368832      -3.36888663       0.10021331        6 
C      -4.13570839      -0.67347831      -0.26758239        6 
C      -0.60131261       1.77396434      -0.43431403        6 
C      -0.10604469       2.98228982       0.38201764        6 
C       1.32669741       2.49601893       0.74833300        6 
C       1.45840910       1.19501523      -0.10059481        6 
O       0.55991978       1.44102086      -1.19670831        8 
H      -1.02585053       0.97781456       1.53144545        1 
H       1.03394973      -0.07048963       1.68052546        1 
H       2.62800437      -3.23447549      -0.80543479        1 
H      -3.91814745      -1.36086764      -1.08599071        1 
H      -0.07089151       3.86884834      -0.25323361        1 
H      -0.73083196       3.20690103       1.24907525        1 
H       2.08773183       3.21865758       0.44929786        1 
H       1.45414635       2.30029248       1.81545855        1 
H       2.60494574      -3.90200178       0.85723527        1 
H       1.11986984      -3.91070325      -0.14748253        1 
H      -4.95045772      -0.00376167      -0.53375682        1 
H      -4.38497774      -1.24608005       0.62716727        1 
H      -1.44975567       1.94091087      -1.09110028        1 
C       2.85211879       0.88551091      -0.59840526        6 
H       3.25196592       1.74767402      -1.13627506        1 
H       3.51425798       0.66354016       0.24250111        1 
H       2.84676482       0.03112116      -1.27662367        1 
