32
Lattice="0.0 0.0 0.0 0.0 0.0 0.0 0.0 0.0 0.0" Properties=species:S:1:pos:R:3:Z:I:1 pbc="F F F"
C      -0.53458245       0.81142220       0.40342873        6 
C       0.68402560      -0.05232995       0.86194127        6 
C      -1.85166778       0.13579018       0.07720831        6 
C       0.62558572      -1.55700788       0.63871491        6 
O      -2.86509191       0.96970714       0.42867185        8 
O      -2.04324719      -0.92887248      -0.45129211        8 
O       0.52866680      -1.90235856      -0.64697515        8 
O       0.76248231      -2.35182929       1.54253587        8 
C       0.37238755      -3.30282903      -0.92484302        6 
C      -4.19386012       0.51066944       0.11630184        6 
C       0.08254259       1.63192658      -0.78583223        6 
C       0.82695334       2.83149527      -0.17239672        6 
C       2.00037021       2.08843009       0.52931528        6 
C       1.82306798       0.62588479       0.01423211        6 
O       1.15735569       0.81867711      -1.24809575        8 
H      -0.77440653       1.50912676       1.20580190        1 
H       0.85719170       0.06938889       1.93012806        1 
H      -0.55951261      -3.66382720      -0.48725716        1 
H      -4.30716721       0.37015187      -0.95993413        1 
H       1.19169810       3.48441265      -0.96700878        1 
H       0.20946249       3.42326859       0.50581739        1 
H       2.96910639       2.48065615       0.21632841        1 
H       1.95459636       2.14546348       1.61894632        1 
H       0.33452237      -3.37721365      -2.00923344        1 
H       1.21094025      -3.87531885      -0.52508787        1 
H      -4.86154195       1.29176692       0.47318845        1 
H      -4.39968613      -0.43281904       0.62382290        1 
H      -0.60225427       1.84804891      -1.60285858        1 
C       3.10911742      -0.15234278      -0.14864797        6 
H       3.80610931       0.40963043      -0.77386643        1 
H       3.57337648      -0.31460833       0.82754419        1 
H       2.92897299      -1.12046697      -0.61583082        1 
