32
Lattice="0.0 0.0 0.0 0.0 0.0 0.0 0.0 0.0 0.0" Properties=species:S:1:pos:R:3:Z:I:1 pbc="F F F"
C      -0.02099854       0.96278107       0.61122996        6 
C       0.73117602      -0.39159235       0.83285827        6 
C      -1.53611954       0.90002211       0.63096572        6 
C       0.04890803      -1.67147631       0.36586013        6 
O      -2.09796534       1.39941491      -0.48581683        8 
O      -2.16934127       0.49810870       1.57680937        8 
O      -1.12493064      -1.46528646      -0.25187916        8 
O       0.57532551      -2.75764308       0.42656988        8 
C      -1.76730014      -2.62347473      -0.81356796        6 
C      -3.53476789       1.34836368      -0.54001822        6 
C       0.71488421       1.56030380      -0.61984832        6 
C       1.95105243       2.30365673      -0.08924472        6 
C       2.76591152       1.09963892       0.46039636        6 
C       1.97985944      -0.12739932      -0.10677756        6 
O       1.30939124       0.42286586      -1.25931485        8 
H       0.19432477       1.58566469       1.48544680        1 
H       1.02949493      -0.54183054       1.87009828        1 
H      -2.00707183      -3.34189133      -0.02879171        1 
H      -3.87617960       0.31523093      -0.45871772        1 
H       2.47404707       2.79561671      -0.91113985        1 
H       1.71169274       3.05400467       0.66714828        1 
H       3.78840293       1.09622615       0.08154094        1 
H       2.81833053       1.07825001       1.55127184        1 
H      -2.67479445      -2.25046477      -1.28306927        1 
H      -1.11816518      -3.09524099      -1.55217607        1 
H      -3.80385894       1.76758329      -1.50710911        1 
H      -3.97209811       1.93441353       0.26960131        1 
H       0.08179202       2.09267665      -1.32232431        1 
C       2.86420298      -1.28780633      -0.50466883        6 
H       3.68144817      -0.91158877      -1.12447222        1 
H       3.28605412      -1.76696458       0.38101072        1 
H       2.31776585      -2.04313901      -1.06482144        1 
