32
Lattice="0.0 0.0 0.0 0.0 0.0 0.0 0.0 0.0 0.0" Properties=species:S:1:pos:R:3:Z:I:1 pbc="F F F"
C       0.05576914       1.13204360       0.27021651        6 
C       0.42963581      -0.32759703       0.75317160        6 
C      -1.36181315       1.40151064      -0.19749475        6 
C      -0.62204294      -1.36446085       0.34417337        6 
O      -2.20826397       1.39434198       0.84444287        8 
O      -1.67692613       1.72813179      -1.31713550        8 
O      -0.19506145      -2.27756186      -0.54159718        8 
O      -1.75730504      -1.34304293       0.75685742        8 
C      -1.17695855      -3.22828633      -0.99623784        6 
C      -3.60384040       1.55411414       0.53816625        6 
C       1.16857730       1.41287002      -0.77459794        6 
C       2.38945202       1.93952975      -0.00731898        6 
C       2.75321010       0.66791745       0.80527434        6 
C       1.86142107      -0.43402308       0.13314266        6 
O       1.61582380       0.11079858      -1.17991024        8 
H       0.17497535       1.79455227       1.13145682        1 
H       0.44914199      -0.35748515       1.84446453        1 
H      -1.99981426      -2.71226283      -1.49250705        1 
H      -3.78049578       2.49748703       0.01937893        1 
H       3.18377565       2.20447974      -0.70719595        1 
H       2.17062061       2.81136485       0.61267238        1 
H       3.80793712       0.40994581       0.70646857        1 
H       2.53786858       0.76831924       1.87177805        1 
H      -0.64931693      -3.87093031      -1.69746715        1 
H      -1.56674394      -3.80765979      -0.15808871        1 
H      -4.11367153       1.53909588       1.49863881        1 
H      -3.94416992       0.72430245      -0.08289979        1 
H       0.83718193       1.97674088      -1.64169742        1 
C       2.55506699      -1.78039638       0.06805051        6 
H       3.55626669      -1.64665971      -0.34770143        1 
H       2.65972107      -2.19450848       1.07545929        1 
H       2.00745359      -2.48829587      -0.54535664        1 
