32
Lattice="0.0 0.0 0.0 0.0 0.0 0.0 0.0 0.0 0.0" Properties=species:S:1:pos:R:3:Z:I:1 pbc="F F F"
C       0.28456012       1.13305702       0.56687647        6 
C       0.53838056      -0.40681493       0.82822862        6 
C      -1.16162336       1.56229372       0.43442662        6 
C      -0.72116737      -1.23773208       0.58358420        6 
O      -1.62798352       1.37722853      -0.81883252        8 
O      -1.83254987       1.97471965       1.34566954        8 
O      -0.60971370      -2.18014079      -0.36488383        8 
O      -1.74541603      -1.04446890       1.19372660        8 
C      -1.80169779      -2.93868995      -0.64352787        6 
C      -3.03394280       1.62384848      -1.00596524        6 
C       1.22454061       1.38930532      -0.65207510        6 
C       2.62777541       1.66113046      -0.09090231        6 
C       2.94766334       0.26067258       0.49833236        6 
C       1.78999090      -0.62477183      -0.07997328        6 
O       1.38941047       0.10233685      -1.25972859        8 
H       0.64389172       1.68404160       1.43618614        1 
H       0.77140461      -0.55689942       1.88467887        1 
H      -2.59613387      -2.27683751      -0.99078458        1 
H      -3.61577564       0.97518446      -0.34935051        1 
H       3.31054082       1.91497017      -0.90342585        1 
H       2.65077990       2.46518821       0.64744957        1 
H       3.91333786      -0.11269601       0.15605460        1 
H       2.95788064       0.25068862       1.59069302        1 
H      -1.51893215      -3.64036489      -1.42525853        1 
H      -2.13704650      -3.46782497       0.24916492        1 
H      -3.23136338       1.39675376      -2.05152344        1 
H      -3.27343711       2.66583888      -0.78818889        1 
H       0.84195851       2.09362382      -1.38588537        1 
C       2.24407644      -2.03072592      -0.41764658        6 
H       3.16274083      -1.97744798      -1.00628180        1 
H       2.46125036      -2.58468745       0.50043988        1 
H       1.49118748      -2.57223252      -0.98095541        1 
