32
Lattice="0.0 0.0 0.0 0.0 0.0 0.0 0.0 0.0 0.0" Properties=species:S:1:pos:R:3:Z:I:1 pbc="F F F"
C      -0.07120414       1.09448720       0.40899772        6 
C       0.59007481      -0.27111086       0.83636782        6 
C      -1.46125521       1.06682333      -0.20019192        6 
C      -0.18750873      -1.56432806       0.67768132        6 
O      -2.36109448       1.56059318       0.69003355        8 
O      -1.77016851       0.66540653      -1.29053313        8 
O      -0.64633847      -1.76008490      -0.56193901        8 
O      -0.31880957      -2.36395290       1.57764810        8 
C      -1.38109571      -2.97281811      -0.79783541        6 
C      -3.73323339       1.57011117       0.25573222        6 
C       0.98189512       1.61178100      -0.62280192        6 
C       2.20443874       2.15552360       0.14390613        6 
C       2.84955869       0.82729512       0.63312165        6 
C       1.91741489      -0.23770166      -0.01127583        6 
O       1.48866342       0.41538067      -1.21524717        8 
H      -0.11779710       1.74922773       1.27764625        1 
H       0.82592705      -0.23457875       1.89867258        1 
H      -2.24156448      -3.03303288      -0.12979556        1 
H      -3.84782008       2.18619588      -0.63761977        1 
H       2.86590032       2.68880263      -0.54059733        1 
H       1.93298315       2.83560302       0.95390031        1 
H       3.86411713       0.71023748       0.24882162        1 
H       2.88944843       0.73961580       1.72039476        1 
H      -1.70269984      -2.91326647      -1.83477557        1 
H      -0.74303858      -3.84403159      -0.63800274        1 
H      -4.29790405       1.98890129       1.08581002        1 
H      -4.07015310       0.55577816       0.03509411        1 
H       0.57544626       2.25533066      -1.39943617        1 
C       2.56521600      -1.57000872      -0.31582242        6 
H       3.46819848      -1.41519875      -0.91012585        1 
H       2.84234772      -2.08009674       0.61025594        1 
H       1.88844381      -2.21187000      -0.88111074        1 
