32
Lattice="0.0 0.0 0.0 0.0 0.0 0.0 0.0 0.0 0.0" Properties=species:S:1:pos:R:3:Z:I:1 pbc="F F F"
C       0.18683933       1.06213550       0.80611787        6 
C       0.70037690      -0.42695619       0.81788133        6 
C      -1.27934244       1.29266963       0.46885674        6 
C      -0.33029654      -1.53551993       0.76868721        6 
O      -1.53037146       1.29149638      -0.84747348        8 
O      -2.11203839       1.55745319       1.30637271        8 
O      -1.14577806      -1.46203929      -0.29794235        8 
O      -0.40121504      -2.41111717       1.59898193        8 
C      -2.15394753      -2.48484262      -0.39764376        6 
C      -2.89590924       1.50865839      -1.23469769        6 
C       1.15249531       1.66374734      -0.25425988        6 
C       2.57984396       1.74116538       0.33504260        6 
C       3.03287643       0.25709470       0.21776095        6 
C       1.75456579      -0.41178902      -0.35372197        6 
O       1.25387896       0.61552083      -1.22189509        8 
H       0.32170074       1.50506972       1.79182440        1 
H       1.21597521      -0.60853622       1.75983280        1 
H      -2.82520406      -2.43936491       0.46114954        1 
H      -3.53914371       0.73500400      -0.81156933        1 
H       3.20549193       2.39901492      -0.26971518        1 
H       2.58829062       2.11762703       1.36017208        1 
H       3.84821700       0.14720653      -0.49937357        1 
H       3.35192978      -0.17970212       1.16552899        1 
H      -2.69130767      -2.27032764      -1.31888939        1 
H      -1.69338370      -3.47285464      -0.44179909        1 
H      -2.89814346       1.45572916      -2.32121560        1 
H      -3.24461322       2.48577156      -0.89573318        1 
H       0.78947942       2.56946080      -0.73327905        1 
C       1.97000682      -1.70501398      -1.10730781        6 
H       2.72788833      -1.56025633      -1.88004579        1 
H       2.31513308      -2.48958631      -0.42864543        1 
H       1.04757260      -2.03509362      -1.58692362        1 
