32
Lattice="0.0 0.0 0.0 0.0 0.0 0.0 0.0 0.0 0.0" Properties=species:S:1:pos:R:3:Z:I:1 pbc="F F F"
C       0.35086961       1.05204611       0.58237380        6 
C       0.42625834      -0.51577157       0.60288081        6 
C      -0.89289171       1.74645575       0.05235037        6 
C      -0.73979126      -1.23821667      -0.04554715        6 
O      -2.01106049       1.02763368       0.25456935        8 
O      -0.89487431       2.87301321      -0.38023674        8 
O      -1.45837498      -1.90030940       0.89083816        8 
O      -0.98406501      -1.29088258      -1.22450658        8 
C      -2.60766837      -2.61336061       0.40415729        6 
C      -3.24489156       1.61336176      -0.20164273        6 
C       1.63154667       1.42007238      -0.21235715        6 
C       2.85983881       1.24421480       0.70095214        6 
C       2.93143799      -0.30620925       0.79134021        6 
C       1.78176248      -0.74130097      -0.16470290        6 
O       1.76041692       0.32823945      -1.12739808        8 
H       0.42632849       1.42128095       1.61031737        1 
H       0.49430451      -0.87304910       1.62884719        1 
H      -2.30659272      -3.40037696      -0.28939506        1 
H      -3.40184876       2.58635723       0.26496999        1 
H       3.74651923       1.65484820       0.21598582        1 
H       2.74303006       1.73600717       1.66901796        1 
H       3.88412551      -0.68543048       0.41807115        1 
H       2.79405769      -0.68795142       1.80514978        1 
H      -3.08081855      -3.04085523       1.28564797        1 
H      -3.28889938      -1.93066399      -0.10641067        1 
H      -4.02316903       0.91340818       0.09432913        1 
H      -3.22474447       1.72679980      -1.28623415        1 
H       1.55755105       2.35950705      -0.75238421        1 
C       1.98661197      -2.07929923      -0.84062599        6 
H       2.96640025      -2.09966854      -1.32244489        1 
H       1.95126256      -2.88567790      -0.10210564        1 
H       1.22126436      -2.25522940      -1.59485396        1 
