32
Lattice="0.0 0.0 0.0 0.0 0.0 0.0 0.0 0.0 0.0" Properties=species:S:1:pos:R:3:Z:I:1 pbc="F F F"
C       0.38369173       1.12648049       0.64125325        6 
C       0.56326598      -0.42719154       0.82811967        6 
C      -0.96515197       1.68873330       0.24290320        6 
C      -0.75896489      -1.18197618       0.80682666        6 
O      -1.64221129       0.89674061      -0.60490268        8 
O      -1.35085080       2.77967433       0.59064897        8 
O      -0.98869068      -1.90308182      -0.29823929        8 
O      -1.52301344      -1.14009792       1.74372892        8 
C      -2.26041600      -2.57170504      -0.35947504        6 
C      -2.91888061       1.38355209      -1.05564184        6 
C       1.43181316       1.40282477      -0.48672308        6 
C       2.84017550       1.37873664       0.13450910        6 
C       3.01391927      -0.14522922       0.38006980        6 
C       1.69461753      -0.73098546      -0.21437925        6 
O       1.39865490       0.20986448      -1.26855567        8 
H       0.65200838       1.66022067       1.55078711        1 
H       0.93424816      -0.60265194       1.83917564        1 
H      -3.07128341      -1.84504661      -0.29118011        1 
H      -3.59683487       1.50324139      -0.20919083        1 
H       3.57228364       1.75280626      -0.58295265        1 
H       2.90978967       1.98303017       1.04080103        1 
H       3.86945767      -0.54068324      -0.16922050        1 
H       3.14347784      -0.40293409       1.43301348        1 
H      -2.27529628      -3.07551321      -1.32349161        1 
H      -2.35613012      -3.29240591       0.45396634        1 
H      -3.28977792       0.62605431      -1.74273028        1 
H      -2.80359410       2.34070042      -1.56575337        1 
H       1.20420100       2.26376154      -1.11239694        1 
C       1.84740021      -2.13429284      -0.76099452        6 
H       2.72959554      -2.17868257      -1.40357583        1 
H       1.98703854      -2.84513822       0.05862579        1 
H       0.97390096      -2.43370607      -1.33296359        1 
