32
Lattice="0.0 0.0 0.0 0.0 0.0 0.0 0.0 0.0 0.0" Properties=species:S:1:pos:R:3:Z:I:1 pbc="F F F"
C      -0.05385752       0.87188871       0.50452140        6 
C       0.65059113      -0.52459550       0.63466642        6 
C      -1.42778191       0.90278735      -0.12610650        6 
C      -0.15028676      -1.67522799       0.03952451        6 
O      -2.17022961       1.88348892       0.44201880        8 
O      -1.82417036       0.22073128      -1.03649207        8 
O      -1.12938321      -2.01950090       0.91295883        8 
O       0.00810550      -2.21472507      -1.02181599        8 
C      -2.07624754      -2.99245944       0.43342969        6 
C      -3.48391503       2.07870492      -0.11561874        6 
C       0.98921834       1.65075446      -0.37059018        6 
C       2.13169783       2.11398154       0.54953445        6 
C       2.80961192       0.74971104       0.85400451        6 
C       2.01773319      -0.23199922      -0.06457340        6 
O       1.60240750       0.62829446      -1.14889617        8 
H      -0.14437102       1.34271949       1.48211711        1 
H       0.78721954      -0.75794613       1.69174296        1 
H      -1.57865227      -3.94026352       0.22207799        1 
H      -3.41685611       2.32972584      -1.17522667        1 
H       2.80268381       2.77713818       0.00094127        1 
H       1.77998671       2.64251219       1.43739467        1 
H       3.86270476       0.75373988       0.56921751        1 
H       2.75128924       0.46423481       1.90649896        1 
H      -2.80072681      -3.11291580       1.23625547        1 
H      -2.55810418      -2.62489680      -0.47348652        1 
H      -3.91833820       2.90152549       0.44780747        1 
H      -4.08425826       1.17503988       0.00080366        1 
H       0.55806048       2.40832845      -1.02187499        1 
C       2.83292717      -1.40229929      -0.56991897        6 
H       3.76235092      -1.03416504      -1.01024403        1 
H       3.08824424      -2.06456129       0.26261276        1 
H       2.28255708      -1.97228820      -1.31414327        1 
