32
Lattice="0.0 0.0 0.0 0.0 0.0 0.0 0.0 0.0 0.0" Properties=species:S:1:pos:R:3:Z:I:1 pbc="F F F"
C      -0.03743712       0.86624876       0.54466869        6 
C       0.66654972      -0.53331936       0.62668069        6 
C      -1.36550274       0.90525407      -0.17713151        6 
C      -0.18973557      -1.68087268       0.11049466        6 
O      -2.17306121       1.83584963       0.38315926        8 
O      -1.67161118       0.26473959      -1.15100156        8 
O      -1.25821539      -1.82669944       0.93464289        8 
O       0.01301512      -2.39374961      -0.83522599        8 
C      -2.23823322      -2.79498569       0.51779141        6 
C      -3.44812988       2.02795052      -0.25907765        6 
C       1.03164538       1.68033921      -0.25629845        6 
C       2.19372349       2.02963501       0.69176344        6 
C       2.87465916       0.63976875       0.82816842        6 
C       2.01258285      -0.24865390      -0.12024560        6 
O       1.59866095       0.70352030      -1.12428640        8 
H      -0.18658873       1.29437782       1.53428754        1 
H       0.85440649      -0.76765363       1.67709373        1 
H      -1.78534834      -3.78262643       0.42203517        1 
H      -3.31214005       2.33085697      -1.29826135        1 
H       2.85749574       2.75303836       0.21577705        1 
H       1.85476333       2.45126296       1.63978240        1 
H       3.90449239       0.66499962       0.46852617        1 
H       2.88821195       0.26118989       1.85248018        1 
H      -2.99732860      -2.79503552       1.29738400        1 
H      -2.66727448      -2.49769842      -0.44044808        1 
H      -3.94333809       2.81239686       0.30884365        1 
H      -4.03123728       1.10620707      -0.22865647        1 
H       0.62686472       2.50562973      -0.83890391        1 
C       2.76722004      -1.40317175      -0.74194650        6 
H       3.69312310      -1.02974683      -1.18558027        1 
H       3.02642870      -2.13696060       0.02663830        1 
H       2.17170786      -1.90034696      -1.50256820        1 
