32
Lattice="0.0 0.0 0.0 0.0 0.0 0.0 0.0 0.0 0.0" Properties=species:S:1:pos:R:3:Z:I:1 pbc="F F F"
C      -0.26568696       0.84083834      -0.90305335        6 
C      -0.42111189      -0.65800762      -0.50481098        6 
C       0.72251104       1.69125508      -0.08974455        6 
C       0.83165947      -1.46416467      -0.22597681        6 
O       1.75473423       0.99580542       0.41737449        8 
O       0.54917693       2.86293014       0.14227199        8 
O       1.74922497      -1.21226096      -1.18668557        8 
O       0.95372561      -2.35181251       0.58120595        8 
C       2.97543345      -1.95468387      -1.09700008        6 
C       2.64183268       1.72750693       1.28507621        6 
C      -1.67077019       1.33371091      -0.46132154        6 
C      -2.81036445       0.59415340      -1.20400052        6 
C      -2.89640010      -0.73679668      -0.40094508        6 
C      -1.64018361      -0.62186676       0.49506537        6 
O      -1.71247946       0.77561999       0.86314771        8 
H      -0.05314502       0.97224111      -1.96543449        1 
H      -0.77363507      -1.16235808      -1.41266218        1 
H       2.78321623      -3.02761297      -1.14812033        1 
H       3.12641379       2.53739684       0.73802890        1 
H      -3.73868922       1.16286730      -1.14256197        1 
H      -2.58189911       0.44442373      -2.26227096        1 
H      -3.78679383      -0.76040719       0.23028819        1 
H      -2.89453273      -1.63150296      -1.02689301        1 
H       3.57393025      -1.63121189      -1.94593470        1 
H       3.48858714      -1.72703636      -0.16080525        1 
H       3.37537718       1.00033262       1.62628010        1 
H       2.08654061       2.14174451       2.12718605        1 
H      -1.75830844       2.41387607      -0.40994649        1 
C      -1.61550269      -1.48826074       1.73047113        6 
H      -2.51498620      -1.29189066       2.31963886        1 
H      -1.58955141      -2.54473032       1.46139067        1 
H      -0.73772434      -1.28080498       2.34178923        1 
