32
Lattice="0.0 0.0 0.0 0.0 0.0 0.0 0.0 0.0 0.0" Properties=species:S:1:pos:R:3:Z:I:1 pbc="F F F"
C       0.46838235       1.08950084       0.74714216        6 
C       0.49083793      -0.47551208       0.77496216        6 
C      -0.72481213       1.79706089       0.12549881        6 
C      -0.89890275      -1.08700214       0.87293154        6 
O      -1.54798348       0.98305280      -0.55289877        8 
O      -0.85898411       2.99705919       0.16969036        8 
O      -1.21542263      -1.95512021      -0.09887507        8 
O      -1.63056581      -0.83576547       1.80198273        8 
C      -2.53112812      -2.53250120      -0.01997455        6 
C      -2.65905161       1.60618746      -1.22184835        6 
C       1.68403483       1.35676586      -0.18674557        6 
C       2.99549063       0.91474714       0.49685657        6 
C       2.93221465      -0.62529258       0.29880976        6 
C       1.53666086      -0.80294840      -0.36190428        6 
O       1.48174602       0.37137315      -1.20414530        8 
H       0.60683894       1.52691668       1.73518988        1 
H       0.93130469      -0.76918039       1.73142301        1 
H      -3.28940975      -1.74990964      -0.07402713        1 
H      -3.31227358       2.09284342      -0.49627123        1 
H       3.85514696       1.34972214      -0.01462269        1 
H       3.03838790       1.22072669       1.54445266        1 
H       3.70422913      -0.96413948      -0.39434321        1 
H       3.03639730      -1.19123980       1.22678160        1 
H      -2.60504231      -3.19968215      -0.87622145        1 
H      -2.65320681      -3.08587574       0.91201701        1 
H      -3.18137364       0.79773953      -1.72866728        1 
H      -2.30261970       2.34331154      -1.94233480        1 
H       1.69028106       2.35277736      -0.62269526        1 
C       1.39100036      -2.05295421      -1.19959538        6 
H       2.23921189      -2.12397194      -1.88467859        1 
H       1.38176134      -2.94211745      -0.56489690        1 
H       0.46773212      -2.03590902      -1.77331806        1 
