32
Lattice="0.0 0.0 0.0 0.0 0.0 0.0 0.0 0.0 0.0" Properties=species:S:1:pos:R:3:Z:I:1 pbc="F F F"
C      -0.29325529       0.90240232      -0.87061805        6 
C      -0.41469247      -0.64455895      -0.58489257        6 
C       0.97750011       1.60726728      -0.42582942        6 
C       0.84374946      -1.30549359      -0.05370835        6 
O       1.12585759       1.62107144       0.90180277        8 
O       1.73126844       2.16018527      -1.19597182        8 
O       1.43919285      -2.00760750      -1.04997472        8 
O       1.29278212      -1.24085928       1.06186877        8 
C       2.67584147      -2.66126182      -0.70997213        6 
C       2.31177414       2.25340308       1.41170620        6 
C      -1.55382010       1.41536224      -0.11103864        6 
C      -2.81895022       1.01081180      -0.90036411        6 
C      -2.91404080      -0.50138631      -0.54630719        6 
C      -1.66933136      -0.69190667       0.36375922        6 
O      -1.60637047       0.57486911       1.04041808        8 
H      -0.36260064       1.09177416      -1.94048514        1 
H      -0.64202517      -1.14596656      -1.52432973        1 
H       2.52899182      -3.34412209       0.12790450        1 
H       3.20224519       1.76573094       1.01233856        1 
H      -3.68497758       1.56227714      -0.53190697        1 
H      -2.72501494       1.20293308      -1.97109732        1 
H      -3.81830297      -0.72080346       0.02428650        1 
H      -2.89967856      -1.15508862      -1.42041801        1 
H       2.97097687      -3.20556097      -1.60423404        1 
H       3.43428996      -1.92314254      -0.44391801        1 
H       2.26026965       2.12835943       2.49050375        1 
H       2.32844958       3.31087823       1.14246491        1 
H      -1.50175796       2.45794207       0.19533863        1 
C      -1.75446498      -1.83233197       1.35258563        6 
H      -2.66907525      -1.73805584       1.94187311        1 
H      -1.78496454      -2.78967206       0.82396329        1 
H      -0.89731755      -1.82736042       2.02434237        1 
