32
Lattice="0.0 0.0 0.0 0.0 0.0 0.0 0.0 0.0 0.0" Properties=species:S:1:pos:R:3:Z:I:1 pbc="F F F"
C      -0.28347004       0.65215042       0.84846151        6 
C       0.67489228      -0.51349507       0.50483017        6 
C      -1.47051661       0.79174400      -0.11131329        6 
C       0.14354342      -1.90744497       0.23293229        6 
O      -2.00093299       2.03392160      -0.01541403        8 
O      -1.95028027      -0.06719733      -0.80374539        8 
O      -1.06864610      -2.09097932       0.78368515        8 
O       0.81979260      -2.81552992      -0.19118350        8 
C      -1.61403943      -3.41838303       0.69516718        6 
C      -3.14574022       2.29314286      -0.84774026        6 
C       0.68109968       1.82556891       0.50779596        6 
C       2.00563518       1.76883151       1.30890077        6 
C       2.82458159       0.72386865       0.49125784        6 
C       1.72865109       0.17518775      -0.45004015        6 
O       1.07120428       1.41500675      -0.81539251        8 
H      -0.64852101       0.63455913       1.87632928        1 
H       1.20952821      -0.72623228       1.43957828        1 
H      -0.95343030      -4.14065677       1.17777397        1 
H      -2.88122632       2.18389499      -1.90055628        1 
H       2.48950883       2.74603303       1.31706382        1 
H       1.84459794       1.47116057       2.34821685        1 
H       3.60252533       1.20782194      -0.10236446        1 
H       3.28731385      -0.05040192       1.10662132        1 
H      -2.57339218      -3.37031834       1.20541717        1 
H      -1.75367510      -3.69828704      -0.34998278        1 
H      -3.43568582       3.31884401      -0.63023186        1 
H      -3.95711907       1.60405108      -0.60816288        1 
H       0.20233916       2.79801389       0.46485114        1 
C       2.17912646      -0.56312281      -1.68562077        6 
H       2.85664109       0.07433915      -2.25897071        1 
H       2.69105765      -1.48645723      -1.41563893        1 
H       1.32525820      -0.82200298      -2.31384830        1 
