32
Lattice="0.0 0.0 0.0 0.0 0.0 0.0 0.0 0.0 0.0" Properties=species:S:1:pos:R:3:Z:I:1 pbc="F F F"
C       0.17460571       0.95567053       0.39912223        6 
C       0.55114301      -0.56151386       0.63202647        6 
C      -1.20340001       1.22992925      -0.16278113        6 
C      -0.40647433      -1.54027819      -0.04458676        6 
O      -2.08757616       1.44832011       0.83316335        8 
O      -1.47914239       1.32898549      -1.33328498        8 
O      -1.65014011      -1.38363582       0.46696241        8 
O      -0.14544610      -2.37632249      -0.86898986        8 
C      -2.68079611      -2.20708080      -0.10982785        6 
C      -3.44848571       1.67022503       0.42830233        6 
C       1.34622060       1.41618394      -0.51782636        6 
C       2.52287104       1.78468686       0.39848813        6 
C       2.87090062       0.37815014       0.95887564        6 
C       2.00352263      -0.56836638       0.06305841        6 
O       1.81250824       0.21155680      -1.13484052        8 
H       0.21542877       1.47025270       1.35971380        1 
H       0.51797859      -0.79027271       1.69998389        1 
H      -2.42150690      -3.26315745      -0.02733860        1 
H      -3.52063903       2.54701271      -0.21698374        1 
H       3.34317145       2.18874253      -0.19682424        1 
H       2.26151794       2.51386909       1.16846021        1 
H       3.92859671       0.14279296       0.83677051        1 
H       2.62792674       0.26969445       2.01865381        1 
H      -3.57964257      -1.98725378       0.46237098        1 
H      -2.82034581      -1.95009041      -1.16119938        1 
H      -4.00554386       1.82392165       1.34989559        1 
H      -3.82981183       0.79963694      -0.10846857        1 
H       1.06579001       2.13453722      -1.28354956        1 
C       2.66799324      -1.89639664      -0.23381008        6 
H       3.68118064      -1.71628395      -0.60055306        1 
H       2.73770192      -2.48974680       0.68271488        1 
H       2.11175513      -2.46405466      -0.97388865        1 
