32
Lattice="0.0 0.0 0.0 0.0 0.0 0.0 0.0 0.0 0.0" Properties=species:S:1:pos:R:3:Z:I:1 pbc="F F F"
C       0.07977406       1.11461381       0.33975406        6 
C       0.51030920      -0.29375530       0.83678726        6 
C      -1.37234922       1.39864979       0.02149077        6 
C      -0.33379933      -1.48219940       0.41982141        6 
O      -2.20749839       0.64104919       0.76028811        8 
O      -1.74247330       2.32440588      -0.65942884        8 
O      -0.96438369      -1.29810308      -0.75215129        8 
O      -0.32986328      -2.53481583       1.01537148        8 
C      -1.71701015      -2.41370925      -1.25532778        6 
C      -3.61351847       0.90296282       0.60305829        6 
C       1.12008180       1.42953048      -0.76978391        6 
C       2.38159419       1.97743366      -0.07976798        6 
C       2.84785579       0.70392963       0.68325914        6 
C       1.90898191      -0.39585459       0.09617670        6 
O       1.56465294       0.13601565      -1.19595249        8 
H       0.24880551       1.81105287       1.17082316        1 
H       0.62301418      -0.34885960       1.91783907        1 
H      -2.53636752      -2.65544370      -0.57548419        1 
H      -3.84335393       1.93867726       0.85706594        1 
H       3.11408037       2.27750755      -0.83091028        1 
H       2.18361371       2.83327777       0.56843243        1 
H       3.88943090       0.46244450       0.46707400        1 
H       2.74466348       0.79037024       1.76716127        1 
H      -2.10174681      -2.09125618      -2.22027667        1 
H      -1.07651831      -3.28915588      -1.36959953        1 
H      -4.11292051       0.21898346       1.28567025        1 
H      -3.92008863       0.70894640      -0.42621894        1 
H       0.73038221       1.99674860      -1.61023234        1 
C       2.53051240      -1.76780512      -0.03074910        6 
H       3.47986917      -1.68939513      -0.56470889        1 
H       2.71481989      -2.19442939       0.95748745        1 
H       1.88267878      -2.45321694      -0.57800471        1 
