32
Lattice="0.0 0.0 0.0 0.0 0.0 0.0 0.0 0.0 0.0" Properties=species:S:1:pos:R:3:Z:I:1 pbc="F F F"
C      -0.21516744       1.06151759       0.45848126        6 
C       0.64667824      -0.19800662       0.83821275        6 
C      -1.55744810       0.88626086      -0.23281968        6 
C       0.06590189      -1.59761471       0.77248980        6 
O      -2.53836494       1.41767227       0.54695150        8 
O      -1.77547547       0.38348568      -1.30184624        8 
O      -0.54555700      -1.87537571      -0.38190265        8 
O       0.21760897      -2.40450869       1.66327183        8 
C      -1.07615801      -3.20325768      -0.53271979        6 
C      -3.87091762       1.34659999       0.00835735        6 
C       0.77093986       1.77563805      -0.52075327        6 
C       1.95042982       2.37263095       0.27915403        6 
C       2.78825047       1.09420303       0.56673398        6 
C       1.91315456      -0.00664405      -0.09000787        6 
O       1.36589154       0.68578029      -1.22171158        8 
H      -0.39389446       1.66040947       1.35002361        1 
H       0.95075231      -0.10128642       1.87949027        1 
H      -1.79869863      -3.41739228       0.25626789        1 
H      -3.93421164       1.89677302      -0.93202870        1 
H       2.50494525       3.08274686      -0.33592203        1 
H       1.62327784       2.89171216       1.18236282        1 
H       3.75672961       1.13361115       0.06505930        1 
H       2.96417868       0.91400619       1.62865133        1 
H      -1.55707538      -3.20707223      -1.50797851        1 
H      -0.27371348      -3.94211944      -0.49276468        1 
H      -4.51339571       1.79890502       0.76075152        1 
H      -4.15676757       0.30813464      -0.16717191        1 
H       0.29180154       2.44816526      -1.22877349        1 
C       2.64560341      -1.25810438      -0.51866320        6 
H       3.48391813      -0.99096996      -1.16529880        1 
H       3.03330772      -1.78989078       0.35356677        1 
H       1.98462752      -1.92686738      -1.07201393        1 
