32
Lattice="0.0 0.0 0.0 0.0 0.0 0.0 0.0 0.0 0.0" Properties=species:S:1:pos:R:3:Z:I:1 pbc="F F F"
C       0.26931648       1.13757691       0.69449208        6 
C       0.50197208      -0.41854214       0.76400340        6 
C      -1.13024908       1.61348111       0.35275660        6 
C      -0.78288278      -1.22321399       0.59582880        6 
O      -1.50380329       1.23184801      -0.88407343        8 
O      -1.81146486       2.28841328       1.08395044        8 
O      -0.61665239      -2.39272398      -0.04170682        8 
O      -1.83631379      -0.88613521       1.08046846        8 
C      -1.78596623      -3.22918216      -0.14732776        6 
C      -2.85487327       1.55210215      -1.25866073        6 
C       1.32920494       1.54574964      -0.37256677        6 
C       2.71307180       1.56394209       0.29942648        6 
C       2.95452334       0.04035941       0.48466517        6 
C       1.71093080      -0.58427986      -0.22826638        6 
O       1.40501472       0.40515672      -1.22898928        8 
H       0.49018685       1.59628759       1.65674345        1 
H       0.82560305      -0.68404417       1.77521661        1 
H      -2.57856024      -2.70762920      -0.68498331        1 
H      -3.55340159       1.05536114      -0.58322076        1 
H       3.45174518       2.00288070      -0.37334230        1 
H       2.72224816       2.13036977       1.23237680        1 
H       3.86676286      -0.28045374      -0.01989636        1 
H       3.02748753      -0.26288699       1.53108133        1 
H      -1.46027074      -4.10776159      -0.69980456        1 
H      -2.14611884      -3.50764284       0.84394185        1 
H      -2.96907033       1.18024480      -2.27471704        1 
H      -3.02042933       2.62987429      -1.22307586        1 
H       1.06908456       2.42658688      -0.95530230        1 
C       2.00126008      -1.91688171      -0.88608933        6 
H       2.91311393      -1.82253835      -1.48030378        1 
H       2.15487562      -2.69285803      -0.13290116        1 
H       1.18607154      -2.22677347      -1.53416893        1 
