32
Lattice="0.0 0.0 0.0 0.0 0.0 0.0 0.0 0.0 0.0" Properties=species:S:1:pos:R:3:Z:I:1 pbc="F F F"
C      -0.85484352       0.32647820       0.89811021        6 
C       0.68512169       0.26207948       0.69128113        6 
C      -1.61318452      -0.70018852       0.04702407        6 
C       1.26795904      -1.14202727       0.75392915        6 
O      -2.85728775      -0.25953940      -0.24220421        8 
O      -1.22742410      -1.80041217      -0.25404116        8 
O       2.20337872      -1.39310816      -0.17820892        8 
O       0.93966665      -1.93481801       1.60074217        8 
C       2.75768238      -2.72342083      -0.16310706        6 
C      -3.68403532      -1.16005572      -1.00132914        6 
C      -1.10740567       1.72296156       0.27642815        6 
C      -0.29352557       2.83766566       0.97888355        6 
C       1.10419590       2.67381872       0.31205745        6 
C       0.91169149       1.33845053      -0.44634724        6 
O      -0.42225435       1.54155727      -0.97680476        8 
H      -1.15559472       0.21225039       1.94052205        1 
H       1.11840936       0.68701643       1.60453505        1 
H       1.96652126      -3.45796461      -0.31738285        1 
H      -3.21343655      -1.39002821      -1.95809108        1 
H      -0.72637739       3.81730575       0.77425716        1 
H      -0.27092140       2.70496028       2.06369199        1 
H       1.29410733       3.47340118      -0.40654307        1 
H       1.93064906       2.64679405       1.02561110        1 
H       3.47213537      -2.74684234      -0.98330747        1 
H       3.25479750      -2.92098360       0.78754023        1 
H      -4.62267906      -0.63146347      -1.15332276        1 
H      -3.84858199      -2.08642392      -0.44859778        1 
H      -2.15201306       1.95051041       0.09540535        1 
C       1.87286079       1.06665483      -1.57799070        6 
H       1.85875764       1.91475441      -2.26714288        1 
H       2.88730136       0.93365854      -1.20016358        1 
H       1.59323627       0.16314665      -2.11841878        1 
