32
Lattice="0.0 0.0 0.0 0.0 0.0 0.0 0.0 0.0 0.0" Properties=species:S:1:pos:R:3:Z:I:1 pbc="F F F"
C      -0.30730279       0.84327087      -0.84829755        6 
C      -0.49704767      -0.70445910      -0.57351249        6 
C       1.04762827       1.40893770      -0.46231883        6 
C       0.74037084      -1.35024450       0.02653549        6 
O       1.16778798       1.58554166       0.86207989        8 
O       1.91801219       1.67552515      -1.25798878        8 
O       1.59954898      -1.65763210      -0.97252262        8 
O       0.97612904      -1.55825251       1.18912615        8 
C       2.87633416      -2.19001587      -0.57657407        6 
C       2.43911295       2.06707819       1.33148072        6 
C      -1.50789071       1.41698949      -0.04210075        6 
C      -2.79777435       1.16874784      -0.85079691        6 
C      -2.97895014      -0.36036104      -0.63709276        6 
C      -1.78861973      -0.70269654       0.30783924        6 
O      -1.64260744       0.51710300       1.05850614        8 
H      -0.40668523       1.04301452      -1.91425572        1 
H      -0.67172583      -1.20860521      -1.52435853        1 
H       2.74914695      -3.13481133      -0.04558340        1 
H       3.23148559       1.36824221       1.05898289        1 
H      -3.62657931       1.73145612      -0.41859391        1 
H      -2.70181910       1.45688843      -1.89965590        1 
H      -3.91961519      -0.58401284      -0.13126996        1 
H      -2.95232074      -0.93623881      -1.56449154        1 
H       3.42644787      -2.33958087      -1.50259883        1 
H       3.39964302      -1.48244698       0.06828709        1 
H       2.34068397       2.12944446       2.41240542        1 
H       2.65931131       3.04596596       0.90288941        1 
H      -1.36357020       2.42940912       0.32726305        1 
C      -2.02438437      -1.88586637       1.22102249        6 
H      -2.96844429      -1.75288275       1.75427129        1 
H      -2.09087885      -2.80661695       0.63375442        1 
H      -1.21675092      -1.98913874       1.94239179        1 
