32
Lattice="0.0 0.0 0.0 0.0 0.0 0.0 0.0 0.0 0.0" Properties=species:S:1:pos:R:3:Z:I:1 pbc="F F F"
C      -0.28933776       1.09029804       0.42760882        6 
C       0.58613482      -0.18405210       0.73406418        6 
C      -1.60832858       0.80435580      -0.26416680        6 
C      -0.18504647      -1.47927168       0.49834257        6 
O      -2.64676547       1.16700583       0.51554658        8 
O      -1.72977819       0.36953970      -1.38264316        8 
O       0.52206588      -2.45770744      -0.08078027        8 
O      -1.32455972      -1.62457486       0.87530287        8 
C      -0.17389426      -3.70364341      -0.28868865        6 
C      -3.95393782       0.87017624      -0.00843634        6 
C       0.67139238       1.88643694      -0.50041451        6 
C       1.75747766       2.54827407       0.36778190        6 
C       2.60375298       1.30458531       0.75608853        6 
C       1.90493135       0.16105936      -0.04662962        6 
O       1.39197385       0.86575903      -1.19205988        8 
H      -0.50785512       1.63751556       1.34317735        1 
H       0.79404540      -0.21534882       1.80801268        1 
H      -1.03910499      -3.54639726      -0.93335201        1 
H      -4.10375528       1.36076490      -0.97134525        1 
H       2.33880504       3.25307157      -0.22884175        1 
H       1.34671082       3.08536141       1.22489070        1 
H       3.63668211       1.40765079       0.42069819        1 
H       2.62062700       1.10889899       1.83023735        1 
H       0.55018787      -4.35879084      -0.76779968        1 
H      -0.50188773      -4.12046379       0.66442930        1 
H      -4.65635779       1.24906528       0.73078863        1 
H      -4.06727644      -0.20830597      -0.12879508        1 
H       0.17178404       2.53162624      -1.21935451        1 
C       2.84719643      -0.94092094      -0.48366362        6 
H       3.74184347      -0.49142038      -0.92090614        1 
H       3.14647793      -1.55218958       0.37077589        1 
H       2.37883616      -1.58941833      -1.21917939        1 
