32
Lattice="0.0 0.0 0.0 0.0 0.0 0.0 0.0 0.0 0.0" Properties=species:S:1:pos:R:3:Z:I:1 pbc="F F F"
C      -0.31079797       0.87673989      -0.83970653        6 
C      -0.44907671      -0.65716700      -0.56200038        6 
C       0.79239747       1.65776187      -0.13658819        6 
C       0.83615522      -1.38784518      -0.21620966        6 
O       1.55257004       0.91250388       0.67704509        8 
O       0.91374190       2.85402282      -0.25502556        8 
O       1.70968939      -1.23245159      -1.24235176        8 
O       1.06625072      -2.07638820       0.74348572        8 
C       3.00029242      -1.83808269      -1.06352512        6 
C       2.54576411       1.60563461       1.45454718        6 
C      -1.65484449       1.36964307      -0.23239477        6 
C      -2.85498305       0.81076408      -1.02868088        6 
C      -2.93966326      -0.63793764      -0.47195291        6 
C      -1.67708861      -0.70167583       0.42557695        6 
O      -1.68325996       0.63030169       0.99382775        8 
H      -0.22900077       1.10314562      -1.90325308        1 
H      -0.74959108      -1.12209570      -1.50556706        1 
H       2.90341492      -2.91343488      -0.90785388        1 
H       3.27981570       2.07596358       0.79864037        1 
H      -3.75784815       1.38137038      -0.80736587        1 
H      -2.68908022       0.85433797      -2.10777834        1 
H      -3.82746103      -0.76865956       0.14950785        1 
H      -2.95041581      -1.40636881      -1.24781183        1 
H       3.54942911      -1.63118382      -1.97973722        1 
H       3.50850003      -1.39502616      -0.20497717        1 
H       3.01050774       0.83976201       2.07117880        1 
H       2.07302082       2.36703642       2.07557971        1 
H      -1.67649866       2.43721343      -0.03057681        1 
C      -1.72010469      -1.74231011       1.52053363        6 
H      -2.64274456      -1.61552013       2.09225734        1 
H      -1.70917066      -2.74756708       1.09317298        1 
H      -0.86458959      -1.65311340       2.18532980        1 
