32
Lattice="0.0 0.0 0.0 0.0 0.0 0.0 0.0 0.0 0.0" Properties=species:S:1:pos:R:3:Z:I:1 pbc="F F F"
C      -0.24861382       0.82894931       0.71489826        6 
C       0.70174158      -0.39577349       0.65093852        6 
C      -1.50037916       0.84539344      -0.14661519        6 
C       0.21353224      -1.82946535       0.54565830        6 
O      -2.40705190       1.68811062       0.42089359        8 
O      -1.69570739       0.27603810      -1.18515509        8 
O      -1.06505555      -1.97396525       0.18528927        8 
O       0.92142061      -2.75844271       0.86870167        8 
C      -1.56681452      -3.32193902       0.12910736        6 
C      -3.62821816       1.87749283      -0.31499571        6 
C       0.70966684       1.88768882       0.06736013        6 
C       1.99130868       2.08013978       0.91956007        6 
C       2.84772728       0.86035075       0.46552981        6 
C       1.81409520       0.08000479      -0.37838625        6 
O       1.17096851       1.16533674      -1.07411791        8 
H      -0.52405128       1.08691776       1.73659208        1 
H       1.19493028      -0.43437934       1.62516943        1 
H      -1.52879511      -3.78540813       1.11648642        1 
H      -3.42191337       2.29538932      -1.30183672        1 
H       2.47419327       3.02664460       0.67404086        1 
H       1.77637259       2.08284646       1.99055367        1 
H       3.67401581       1.17580409      -0.17476935        1 
H       3.25222614       0.27441993       1.29234272        1 
H      -2.59400873      -3.22945801      -0.21582745        1 
H      -0.97860857      -3.91698665      -0.57043921        1 
H      -4.22130718       2.57061574       0.27804905        1 
H      -4.15352837       0.92822833      -0.43350246        1 
H       0.21375043       2.80439141      -0.24508097        1 
C       2.34523576      -0.93967310      -1.35486069        6 
H       3.06871480      -0.46560649      -2.02169746        1 
H       2.83312620      -1.75891002      -0.82416716        1 
H       1.53377952      -1.35050311      -1.95991455        1 
