32
Lattice="0.0 0.0 0.0 0.0 0.0 0.0 0.0 0.0 0.0" Properties=species:S:1:pos:R:3:Z:I:1 pbc="F F F"
C      -0.62830311       0.69844835       0.39317838        6 
C       0.67737396      -0.00838537       0.86036415        6 
C      -1.90525802      -0.08591425       0.16022944        6 
C       0.89841658      -1.48754450       0.59050396        6 
O      -2.95514914       0.75089554       0.38751942        8 
O      -2.05379398      -1.21983537      -0.21217139        8 
O       0.55890704      -1.86567729      -0.64202145        8 
O       1.47024731      -2.20527834       1.38249894        8 
C       0.74715035      -3.25229700      -0.96501045        6 
C      -4.26244167       0.20637178       0.13210605        6 
C      -0.12793796       1.55173868      -0.82933764        6 
C       0.43473615       2.86319121      -0.25307875        6 
C       1.67649496       2.30775510       0.50359981        6 
C       1.72519494       0.82436921       0.01915355        6 
O       1.05761505       0.88681243      -1.25628748        8 
H      -0.90430697       1.40273792       1.17974628        1 
H       0.83500517       0.12173137       1.92965028        1 
H       0.14264733      -3.87714593      -0.30575432        1 
H      -4.35745034      -0.08827253      -0.91441649        1 
H       0.73116273       3.52766709      -1.06647079        1 
H      -0.27344050       3.39198728       0.38720796        1 
H       2.59085597       2.82708721       0.21384639        1 
H       1.58370759       2.37754154       1.58939682        1 
H       0.41368223      -3.35352604      -1.99510566        1 
H       1.79727387      -3.53343763      -0.86786768        1 
H      -4.96061769       1.00643187       0.36885545        1 
H      -4.44577748      -0.66244407       0.76609808        1 
H      -0.82944790       1.63960366      -1.65557954        1 
C       3.11180282       0.23764682      -0.11934453        6 
H       3.73037533       0.89361156      -0.73557517        1 
H       3.57884028       0.13499713       0.86284525        1 
H       3.08159446      -0.74623744      -0.58892223        1 
