32
Lattice="0.0 0.0 0.0 0.0 0.0 0.0 0.0 0.0 0.0" Properties=species:S:1:pos:R:3:Z:I:1 pbc="F F F"
C       0.28281437       0.87023671       0.87514638        6 
C       0.43981800      -0.64829153       0.53678804        6 
C      -0.75166393       1.67644939       0.08339508        6 
C      -0.82536597      -1.42029128       0.21797321        6 
O      -1.76386766       0.93642502      -0.39897069        8 
O      -0.64319430       2.85938338      -0.12959283        8 
O      -1.68350156      -1.30528975       1.26002859        8 
O      -1.02531325      -2.15090882      -0.71882277        8 
C      -2.94408711      -1.97716591       1.11025915        6 
C      -2.70884166       1.62053542      -1.24411692        6 
C       1.66681087       1.36689899       0.38335534        6 
C       2.82375729       0.69927130       1.16356240        6 
C       2.92084710      -0.68157489       0.45308653        6 
C       1.66681895      -0.64169411      -0.45376202        6 
O       1.71178700       0.73245662      -0.90456596        8 
H       0.10328694       1.04068453       1.93842633        1 
H       0.76662158      -1.12796077       1.46489299        1 
H      -2.79613800      -3.04660204       0.95346736        1 
H      -3.22908278       2.39729864      -0.68190949        1 
H       3.74281769       1.27589052       1.05325105        1 
H       2.60672929       0.61993392       2.23161112        1 
H       3.81382273      -0.74112344      -0.17198762        1 
H       2.92554666      -1.53049155       1.13991611        1 
H      -3.48365979      -1.79636581       2.03760829        1 
H      -3.49429112      -1.56312512       0.26313918        1 
H      -3.40450883       0.85388943      -1.57782858        1 
H      -2.19490741       2.07059306      -2.09398523        1 
H       1.72666343       2.44447600       0.26885447        1 
C       1.67936399      -1.58081550      -1.63657764        6 
H       2.59908328      -1.42103825      -2.20507913        1 
H       1.64615886      -2.61995233      -1.30447980        1 
H       0.82146639      -1.41208090      -2.28448008        1 
