32
Lattice="0.0 0.0 0.0 0.0 0.0 0.0 0.0 0.0 0.0" Properties=species:S:1:pos:R:3:Z:I:1 pbc="F F F"
C      -0.87935665      -0.19859878      -0.86017980        6 
C       0.65011041      -0.23372270      -0.64124909        6 
C      -1.60512283       0.79537217       0.04903381        6 
C       1.34095624       1.11725566      -0.63797885        6 
O      -2.94121661       0.58567912      -0.03101201        8 
O      -1.11553057       1.67125060       0.71044355        8 
O       2.55569895       1.07029778      -0.05227906        8 
O       0.90394680       2.10008411      -1.18000443        8 
C       3.30569577       2.30018782      -0.07434964        6 
C      -3.76484054       1.44946029       0.77258322        6 
C      -1.21965818      -1.60639834      -0.29411227        6 
C      -0.46044066      -2.74098496      -1.02749963        6 
C       0.93555666      -2.68046463      -0.33743648        6 
C       0.80691224      -1.36302624       0.46271679        6 
O      -0.54212440      -1.51422500       0.97023023        8 
H      -1.17975443      -0.03771085      -1.89562961        1 
H       1.07299096      -0.65684536      -1.56196571        1 
H       2.73891956       3.09734140       0.40788855        1 
H      -3.54926684       1.29966323       1.83181507        1 
H      -0.95185171      -3.70041523      -0.86233411        1 
H      -0.41442318      -2.57339644      -2.10649336        1 
H       1.06966516      -3.51344950       0.35548575        1 
H       1.77240562      -2.67529150      -1.03932155        1 
H       4.22119318       2.09076183       0.47479932        1 
H       3.53112130       2.59110830      -1.10163050        1 
H      -4.79038412       1.16414459       0.54748647        1 
H      -3.58985224       2.49451660       0.51350534        1 
H      -2.27955906      -1.77810286      -0.13494587        1 
C       1.76022105      -1.16425642       1.61497482        6 
H       1.65073094      -1.99924670       2.31116208        1 
H       2.79105163      -1.12441880       1.26322152        1 
H       1.54170478      -0.23460878       2.14185086        1 
