32
Lattice="0.0 0.0 0.0 0.0 0.0 0.0 0.0 0.0 0.0" Properties=species:S:1:pos:R:3:Z:I:1 pbc="F F F"
C       0.34385343       0.89690875       0.76682115        6 
C       0.47961903      -0.66048773       0.58935851        6 
C      -0.88794060       1.63256297       0.27700858        6 
C      -0.77072773      -1.36530611       0.08830731        6 
O      -1.52828580       1.00680803      -0.71814246        8 
O      -1.20898075       2.71669188       0.70625168        8 
O      -1.67033309      -1.41890227       1.10323981        8 
O      -0.98745335      -1.81765147      -1.00442310        8 
C      -2.95558825      -1.97317955       0.77370584        6 
C      -2.67498447       1.67155845      -1.27785453        6 
C       1.59161953       1.38247923      -0.04099378        6 
C       2.86282272       1.09456697       0.78251640        6 
C       2.97840402      -0.44371740       0.60208228        6 
C       1.75949821      -0.76176083      -0.31221517        6 
O       1.66720111       0.44069382      -1.10841414        8 
H       0.43760757       1.17819215       1.81499622        1 
H       0.67768259      -1.09410684       1.57140755        1 
H      -2.85297842      -3.00015179       0.42018411        1 
H      -3.42319099       1.85289056      -0.50465592        1 
H       3.71846081       1.61333656       0.34749121        1 
H       2.76736281       1.41095356       1.82296267        1 
H       3.89943296      -0.71406372       0.08322412        1 
H       2.94839757      -0.99812613       1.54215635        1 
H      -3.53209296      -1.94091956       1.69571111        1 
H      -3.43742682      -1.37391817      -0.00104600        1 
H      -3.05586252       0.99126858      -2.03611814        1 
H      -2.38106267       2.62184049      -1.72529838        1 
H       1.50206526       2.39277659      -0.43468375        1 
C       1.94128292      -1.98062576      -1.19002933        6 
H       2.89684029      -1.90749270      -1.71457020        1 
H       1.95605318      -2.88663145      -0.57718236        1 
H       1.13524163      -2.06914888      -1.91367789        1 
