32
Lattice="0.0 0.0 0.0 0.0 0.0 0.0 0.0 0.0 0.0" Properties=species:S:1:pos:R:3:Z:I:1 pbc="F F F"
C       0.09852429       1.05504610       0.56633694        6 
C       0.46697946      -0.47640018       0.59406087        6 
C      -1.11652141       1.43715481      -0.26162780        6 
C      -0.57672115      -1.41670002       0.02776944        6 
O      -2.15520327       1.74676484       0.55965437        8 
O      -1.20150526       1.43773690      -1.45910248        8 
O      -1.06305550      -2.21422803       1.01433868        8 
O      -0.94526706      -1.49033236      -1.11523830        8 
C      -2.07073970      -3.16118273       0.61467402        6 
C      -3.39449028       2.06837439      -0.09955851        6 
C       1.39449384       1.62905758      -0.07848752        6 
C       2.55661657       1.53876436       0.93587722        6 
C       2.90845884       0.02596737       0.84710777        6 
C       1.84753375      -0.48273281      -0.16613607        6 
O       1.72958901       0.63997553      -1.05098320        8 
H      -0.05556358       1.42254065       1.57977755        1 
H       0.61596505      -0.77810773       1.62952107        1 
H      -1.67723097      -3.84413179      -0.13995906        1 
H      -3.27985555       2.96259647      -0.71455393        1 
H       3.39087629       2.16285720       0.61288204        1 
H       2.26464816       1.85914657       1.93817884        1 
H       3.90567339      -0.12372510       0.42918447        1 
H       2.86309072      -0.49238012       1.80680984        1 
H      -2.33557708      -3.70226334       1.52048432        1 
H      -2.94129565      -2.64403242       0.20770718        1 
H      -4.11156724       2.24389497       0.69958772        1 
H      -3.71505450       1.23950487      -0.73257266        1 
H       1.26295691       2.59139796      -0.56781424        1 
C       2.21023151      -1.73866250      -0.92580281        6 
H       3.18591090      -1.61358695      -1.40008863        1 
H       2.26760597      -2.59196522      -0.24360278        1 
H       1.47034864      -1.95126800      -1.69715189        1 
