32
Lattice="0.0 0.0 0.0 0.0 0.0 0.0 0.0 0.0 0.0" Properties=species:S:1:pos:R:3:Z:I:1 pbc="F F F"
C      -0.08916201       0.93672280       0.76737586        6 
C       0.62939525      -0.45056615       0.62395711        6 
C      -1.57327821       0.89858196       0.44535744        6 
C      -0.21567859      -1.52049550      -0.03903437        6 
O      -1.96365675       1.90080506      -0.35768316        8 
O      -2.32766993       0.07401943       0.90363214        8 
O      -0.26698541      -2.62996819       0.72794362        8 
O      -0.73357500      -1.43643709      -1.12469846        8 
C      -1.05842203      -3.71357067       0.20624537        6 
C      -3.35813875       1.90641427      -0.72390831        6 
C       0.82013532       1.84927917      -0.09433389        6 
C       2.10704295       2.15946250       0.69741684        6 
C       2.82673809       0.78196898       0.63287719        6 
C       1.86059952      -0.04338333      -0.26465395        6 
O       1.29282878       0.96705461      -1.11740074        8 
H      -0.05449050       1.24359924       1.81734831        1 
H       0.95196612      -0.83051675       1.59107225        1 
H      -0.64860189      -4.06496264      -0.74229197        1 
H      -3.60942941       0.98134617      -1.24374224        1 
H       2.68261382       2.93099993       0.18376196        1 
H       1.91192538       2.50430543       1.71521178        1 
H       3.80157450       0.86254951       0.14908324        1 
H       2.97433875       0.32322573       1.61243506        1 
H      -1.00874216      -4.49730871       0.95903274        1 
H      -2.08808468      -3.38687511       0.05624379        1 
H      -3.47963520       2.76365958      -1.38200906        1 
H      -3.98530240       2.00682374       0.16304950        1 
H       0.31556025       2.69911977      -0.54291044        1 
C       2.50546236      -1.14129444      -1.08097378        6 
H       3.34548306      -0.73536467      -1.64829965        1 
H       2.88162232      -1.93203804      -0.42597430        1 
H       1.79026227      -1.57209175      -1.78197977        1 
