32
Lattice="0.0 0.0 0.0 0.0 0.0 0.0 0.0 0.0 0.0" Properties=species:S:1:pos:R:3:Z:I:1 pbc="F F F"
C       0.18186152       0.99176889       0.87230022        6 
C       0.64774001      -0.49298875       0.72308752        6 
C      -1.19536038       1.47494887       0.44212939        6 
C      -0.31552031      -1.66462066       0.68235768        6 
O      -1.54389794       1.11332969      -0.79657423        8 
O      -1.83537425       2.25646475       1.11202371        8 
O      -1.47199937      -1.44246705       0.04442106        8 
O      -0.03537951      -2.72835012       1.18903815        8 
C      -2.38808943      -2.55170062      -0.01658001        6 
C      -2.79117934       1.63167558      -1.28413348        6 
C       1.23768491       1.66681506      -0.06513566        6 
C       2.65864383       1.51906637       0.53507061        6 
C       3.01276881       0.06076608       0.12162086        6 
C       1.67011758      -0.40981440      -0.48731753        6 
O       1.25397575       0.77757926      -1.18216587        8 
H       0.28647094       1.32270143       1.90419403        1 
H       1.22885982      -0.72862494       1.61483954        1 
H      -2.68368272      -2.85849871       0.98772703        1 
H      -3.61742544       1.29568831      -0.65473932        1 
H       3.34048593       2.24228401       0.08628008        1 
H       2.66786907       1.67532883       1.61594137        1 
H       3.78391397       0.04493363      -0.65119036        1 
H       3.34556529      -0.56366546       0.95232747        1 
H      -3.24615854      -2.18280355      -0.57425140        1 
H      -1.92968098      -3.39785516      -0.53028451        1 
H      -2.89167384       1.23529014      -2.29222161        1 
H      -2.77625435       2.72273267      -1.29962094        1 
H       0.97016243       2.66949721      -0.39234111        1 
C       1.72560988      -1.59156937      -1.42543377        6 
H       2.44498680      -1.39732104      -2.22366036        1 
H       2.03210006      -2.49167153      -0.88825567        1 
H       0.74766365      -1.77007834      -1.87806774        1 
