32
Lattice="0.0 0.0 0.0 0.0 0.0 0.0 0.0 0.0 0.0" Properties=species:S:1:pos:R:3:Z:I:1 pbc="F F F"
C      -0.29252663       0.91400297      -0.92547674        6 
C      -0.38914074      -0.62101478      -0.59057009        6 
C       0.98364881       1.62074403      -0.49148211        6 
C       0.88788350      -1.26936793      -0.09506434        6 
O       1.02916486       1.85907498       0.82157611        8 
O       1.82626349       1.99514993      -1.27678875        8 
O       1.24542074      -2.27369419      -0.93108482        8 
O       1.51188818      -0.98766073       0.89710145        8 
C       2.44411271      -2.99081234      -0.58100438        6 
C       2.23820979       2.45230625       1.32337139        6 
C      -1.55651686       1.42582791      -0.17731513        6 
C      -2.82541710       0.93672411      -0.91483269        6 
C      -2.88629213      -0.54754868      -0.45024831        6 
C      -1.60331387      -0.65331380       0.41635867        6 
O      -1.55628005       0.64637251       1.02077390        8 
H      -0.35757237       1.06848442      -2.00143041        1 
H      -0.66237445      -1.15612387      -1.49806389        1 
H       2.34282078      -3.44466630       0.40597532        1 
H       3.08006741       1.78093512       1.14872099        1 
H      -3.69909524       1.49652747      -0.57899725        1 
H      -2.74822851       1.04893788      -1.99826937        1 
H      -3.76073038      -0.73005736       0.17735173        1 
H      -2.90340587      -1.26434075      -1.27332743        1 
H       2.55689418      -3.75563424      -1.34615272        1 
H       3.30301518      -2.31810905      -0.58159744        1 
H       2.07192015       2.58208610       2.39017175        1 
H       2.42759291       3.41135337       0.83894278        1 
H      -1.53511058       2.48378304       0.07303443        1 
C      -1.60125777      -1.74215924       1.46491108        6 
H      -2.48264738      -1.64040950       2.10142517        1 
H      -1.63178988      -2.72678855       0.98966311        1 
H      -0.70928006      -1.67745525       2.08833730        1 
