32
Lattice="0.0 0.0 0.0 0.0 0.0 0.0 0.0 0.0 0.0" Properties=species:S:1:pos:R:3:Z:I:1 pbc="F F F"
C      -0.28011405       0.81942921      -0.88556596        6 
C      -0.48855571      -0.71763217      -0.55780948        6 
C       1.06716778       1.36729023      -0.44290193        6 
C       0.76223335      -1.35208970       0.02067476        6 
O       1.06461285       1.78763275       0.82905722        8 
O       2.03457866       1.42202815      -1.16747480        8 
O       1.53490182      -1.81111447      -0.98711323        8 
O       1.06426812      -1.44368861       1.18460877        8 
C       2.83156120      -2.31492162      -0.61789890        6 
C       2.32285552       2.24849397       1.35238683        6 
C      -1.50531322       1.42054213      -0.14588969        6 
C      -2.78277341       1.09192041      -0.94847069        6 
C      -2.96979278      -0.41138831      -0.59756378        6 
C      -1.76314106      -0.67370045       0.34875099        6 
O      -1.63043288       0.59536339       1.01416580        8 
H      -0.32208360       0.97885328      -1.96218083        1 
H      -0.69469300      -1.24546995      -1.48881272        1 
H       2.73707951      -3.13020189       0.10058773        1 
H       3.05321503       1.43815424       1.33875445        1 
H      -3.61945469       1.69169855      -0.58782163        1 
H      -2.66752637       1.27914423      -2.01815322        1 
H      -3.90019975      -0.58094263      -0.05296825        1 
H      -2.96634340      -1.06647412      -1.47100651        1 
H       3.27942366      -2.66626693      -1.54452409        1 
H       3.43311705      -1.51370849      -0.18586038        1 
H       2.11356276       2.55369410       2.37479649        1 
H       2.69895365       3.08700613       0.76445568        1 
H      -1.38719098       2.45881057       0.15332370        1 
C      -1.96073998      -1.79757136       1.34109773        6 
H      -2.88578982      -1.63386478       1.89873724        1 
H      -2.04405585      -2.75322491       0.81499862        1 
H      -1.12829823      -1.85406349       2.03991051        1 
