32
Lattice="0.0 0.0 0.0 0.0 0.0 0.0 0.0 0.0 0.0" Properties=species:S:1:pos:R:3:Z:I:1 pbc="F F F"
C       0.42390574       1.11587958       0.70130497        6 
C       0.52945308      -0.44843657       0.79157420        6 
C      -0.82247167       1.76623190       0.12378116        6 
C      -0.81901995      -1.14954184       0.86748932        6 
O      -1.66718371       0.90999325      -0.46718588        8 
O      -0.98707524       2.96338267       0.14002108        8 
O      -1.13297195      -1.90761064      -0.19278297        8 
O      -1.52166890      -1.05400397       1.84680159        8 
C      -2.41982777      -2.54772263      -0.14666575        6 
C      -2.83747600       1.47948767      -1.08171572        6 
C       1.59652249       1.41283270      -0.27956640        6 
C       2.94631422       1.11382787       0.40348012        6 
C       2.98173798      -0.43659079       0.32469813        6 
C       1.60432875      -0.75857849      -0.31990078        6 
O       1.45509204       0.35459500      -1.23173413        8 
H       0.58344203       1.58920922       1.66979966        1 
H       0.96328965      -0.68155773       1.76634168        1 
H      -3.20919685      -1.80029736      -0.05387877        1 
H      -3.45958491       1.96747194      -0.33019914        1 
H       3.76420954       1.56285127      -0.16160562        1 
H       2.99044446       1.50082976       1.42352562        1 
H       3.77833062      -0.77911832      -0.33794554        1 
H       3.11754975      -0.92077265       1.29393058        1 
H      -2.50790394      -3.08700890      -1.08748739        1 
H      -2.47824291      -3.23586168       0.69798245        1 
H      -3.36410942       0.64044627      -1.53118795        1 
H      -2.55077681       2.20517075      -1.84362243        1 
H       1.52064017       2.37813093      -0.77394945        1 
C       1.56310725      -2.06913441      -1.07391945        6 
H       2.43308148      -2.13135943      -1.73185175        1 
H       1.59622827      -2.91205377      -0.37874559        1 
H       0.65760306      -2.15219669      -1.66881140        1 
