32
Lattice="0.0 0.0 0.0 0.0 0.0 0.0 0.0 0.0 0.0" Properties=species:S:1:pos:R:3:Z:I:1 pbc="F F F"
C       0.13787393       0.94858822       0.34281978        6 
C       0.50061769      -0.53543786       0.70715196        6 
C      -1.28229830       1.32033095      -0.02726444        6 
C      -0.35595127      -1.62648530       0.05279675        6 
O      -2.09178216       1.19824759       1.04712916        8 
O      -1.63007882       1.82075521      -1.06841977        8 
O      -1.63846377      -1.24702990      -0.10654895        8 
O       0.03548341      -2.71440365      -0.28782481        8 
C      -2.51211049      -2.20432356      -0.73428770        6 
C      -3.47687409       1.50666711       0.82846152        6 
C       1.23851321       1.31006087      -0.69207527        6 
C       2.43436051       1.83982791       0.10970804        6 
C       2.80175609       0.54990652       0.89436878        6 
C       1.97325898      -0.55405131       0.14984104        6 
O       1.73262987       0.04104591      -1.14500502        8 
H       0.30224390       1.53185577       1.25421438        1 
H       0.45332329      -0.69940460       1.78689176        1 
H      -2.56682597      -3.11636869      -0.13846943        1 
H      -3.59771005       2.54253198       0.50755856        1 
H       3.23820866       2.13824786      -0.56541581        1 
H       2.18510787       2.68873978       0.74996607        1 
H       3.86645937       0.32492148       0.83263296        1 
H       2.53939211       0.60695767       1.95381995        1 
H      -3.48391247      -1.71837510      -0.78371456        1 
H      -2.15231401      -2.44660721      -1.73470848        1 
H      -3.96782808       1.34185155       1.78521657        1 
H      -3.89437262       0.84559353       0.06664819        1 
H       0.89136150       1.89871532      -1.53623474        1 
C       2.72468531      -1.86372632       0.02560197        6 
H       3.73585424      -1.65701244      -0.33316834        1 
H       2.79864871      -2.34665289       1.00365296        1 
H       2.23445453      -2.55150136      -0.65531780        1 
