32
Lattice="0.0 0.0 0.0 0.0 0.0 0.0 0.0 0.0 0.0" Properties=species:S:1:pos:R:3:Z:I:1 pbc="F F F"
C      -0.37534594       1.00604694       0.55389519        6 
C       0.63048852      -0.17849891       0.78169610        6 
C      -1.85302673       0.66137548       0.53591283        6 
C       0.08589685      -1.51625534       0.26542476        6 
O      -2.37934233       0.70145597      -0.70340751        8 
O      -2.47996707       0.38433836       1.52719415        8 
O       1.04275610      -2.34461305      -0.18826956        8 
O      -1.06438650      -1.86375122       0.37083286        8 
C       0.60618041      -3.65740007      -0.58970894        6 
C      -3.74431778       0.25604510      -0.81354519        6 
C       0.27274820       1.75478708      -0.64870424        6 
C       1.25590580       2.76674684      -0.04455096        6 
C       2.25066063       1.77980774       0.62463445        6 
C       1.85332412       0.40328171      -0.01842809        6 
O       1.16786640       0.79490974      -1.23046088        8 
H      -0.30087534       1.64023704       1.44051760        1 
H       0.84055404      -0.32206328       1.84423931        1 
H      -0.12449968      -3.58511635      -1.39602915        1 
H      -3.82053203      -0.77981893      -0.48033321        1 
H       1.73808224       3.34156372      -0.83728232        1 
H       0.78742516       3.46155625       0.65535896        1 
H       3.28641705       2.02446815       0.38907796        1 
H       2.15846962       1.75818116       1.71325879        1 
H       1.50535370      -4.16590781      -0.93108738        1 
H       0.16070415      -4.18551733       0.25447212        1 
H      -3.99370304       0.34279996      -1.86895252        1 
H      -4.40215414       0.88186171      -0.20867786        1 
H      -0.42156577       2.11683232      -1.40065873        1 
C       3.06463198      -0.45304330      -0.33248764        6 
H       3.82793716       0.17400419      -0.79830252        1 
H       3.48063442      -0.87496616       0.58615511        1 
H       2.82057070      -1.26842205      -1.00471867        1 
