32
Lattice="0.0 0.0 0.0 0.0 0.0 0.0 0.0 0.0 0.0" Properties=species:S:1:pos:R:3:Z:I:1 pbc="F F F"
C      -0.25865002       0.82641308      -0.94807313        6 
C      -0.40648261      -0.66179474      -0.55072410        6 
C       0.74628135       1.67757685      -0.17280937        6 
C       0.82559855      -1.52030513      -0.35311417        6 
O       1.41559939       1.00539455       0.77584392        8 
O       0.81672421       2.87665919      -0.30958259        8 
O       1.89548796      -1.00102861      -0.98878258        8 
O       0.81277640      -2.63808929       0.10497507        8 
C       3.08171397      -1.81353125      -1.00254272        6 
C       2.23088444       1.79783240       1.65708850        6 
C      -1.64368066       1.32907989      -0.42927738        6 
C      -2.82473924       0.59438042      -1.11172118        6 
C      -2.87526564      -0.73512806      -0.30129783        6 
C      -1.57045425      -0.62558048       0.51937104        6 
O      -1.62348733       0.77278843       0.89318011        8 
H      -0.10549710       0.98499100      -2.01511796        1 
H      -0.82323379      -1.16158479      -1.43507074        1 
H       2.88025361      -2.78103088      -1.46501582        1 
H       3.03428170       2.28250354       1.10016079        1 
H      -3.74483402       1.16965629      -1.00307336        1 
H      -2.65272398       0.44160726      -2.17993114        1 
H      -3.72962020      -0.75208717       0.37827739        1 
H      -2.91266593      -1.63035177      -0.92526203        1 
H       3.80937371      -1.25210364      -1.58445123        1 
H       3.44433120      -1.97048230       0.01455757        1 
H       2.63598633       1.09684968       2.38364845        1 
H       1.62411956       2.55792471       2.15083421        1 
H      -1.72433182       2.41114743      -0.38031539        1 
C      -1.45534660      -1.49405317       1.74695631        6 
H      -2.30659531      -1.30045511       2.40396804        1 
H      -1.44413477      -2.54887957       1.47249312        1 
H      -0.53517329      -1.27777289       2.29204900        1 
