32
Lattice="0.0 0.0 0.0 0.0 0.0 0.0 0.0 0.0 0.0" Properties=species:S:1:pos:R:3:Z:I:1 pbc="F F F"
C       0.20456351       1.01479112       0.65708224        6 
C       0.51253724      -0.53233167       0.56936469        6 
C      -0.92058076       1.54141286      -0.23574223        6 
C      -0.64751255      -1.42059440       0.15812101        6 
O      -2.12072803       1.03830718       0.12097599        8 
O      -0.78305304       2.33525724      -1.13121755        8 
O      -1.53625651      -1.47734673       1.17435726        8 
O      -0.74301845      -2.09730475      -0.83548655        8 
C      -2.72853371      -2.24020034       0.93191199        6 
C      -3.24566442       1.46499330      -0.67112017        6 
C       1.55088761       1.56892488       0.14143689        6 
C       2.68853707       1.24422830       1.13694931        6 
C       2.97424332      -0.24512838       0.79512928        6 
C       1.85821138      -0.54724642      -0.24141936        6 
O       1.81058439       0.69687287      -0.96611325        8 
H      -0.03061196       1.30006898       1.68424562        1 
H       0.71585144      -0.86454336       1.59045998        1 
H      -2.48577047      -3.28462240       0.72942954        1 
H      -3.36427329       2.54800207      -0.61645014        1 
H       3.55735785       1.87496751       0.94568842        1 
H       2.38512489       1.39894597       2.17523855        1 
H       3.94679554      -0.35939302       0.31317668        1 
H       2.94284427      -0.91019031       1.66047615        1 
H      -3.31899518      -2.15302507       1.84136832        1 
H      -3.27480400      -1.82791044       0.08166425        1 
H      -4.10890088       0.96343277      -0.23854344        1 
H      -3.10931296       1.16970636      -1.71232889        1 
H       1.49865079       2.59493389      -0.20992180        1 
C       2.14384387      -1.70000020      -1.17717857        6 
H       3.12374345      -1.55046417      -1.63674818        1 
H       2.15916294      -2.64440525      -0.62736703        1 
H       1.38737061      -1.77413842      -1.95475517        1 
