32
Lattice="0.0 0.0 0.0 0.0 0.0 0.0 0.0 0.0 0.0" Properties=species:S:1:pos:R:3:Z:I:1 pbc="F F F"
C       0.34356491       1.04931301       0.53908992        6 
C       0.40685398      -0.51145388       0.61995270        6 
C      -0.92350250       1.79889652       0.17193430        6 
C      -0.72121077      -1.27682274      -0.05268452        6 
O      -2.00329860       1.02164102       0.01531796        8 
O      -0.96082799       3.00707271       0.13629459        8 
O      -1.42266338      -1.97232466       0.87665115        8 
O      -0.96348053      -1.32368807      -1.23037825        8 
C      -2.52803409      -2.74226593       0.37429196        6 
C      -3.24138896       1.69059161      -0.28984510        6 
C       1.56185871       1.37964927      -0.38140737        6 
C       2.83843245       1.33517685       0.47577480        6 
C       2.91588821      -0.18879631       0.77415897        6 
C       1.77434104      -0.75976048      -0.12140019        6 
O       1.69497940       0.20741603      -1.18567608        8 
H       0.55254133       1.44291279       1.53836679        1 
H       0.45002793      -0.83619263       1.65808946        1 
H      -2.17716173      -3.51682905      -0.31003805        1 
H      -3.52679386       2.35373303       0.52806718        1 
H       3.69339766       1.66604020      -0.11581715        1 
H       2.77880455       1.95891004       1.36950154        1 
H       3.87493352      -0.61006561       0.46884956        1 
H       2.76796745      -0.43107526       1.82889800        1 
H      -2.99426097      -3.18922158       1.24987157        1 
H      -3.23363226      -2.09681907      -0.15112200        1 
H      -3.97309661       0.89591833      -0.41642142        1 
H      -3.14144487       2.26875515      -1.20885391        1 
H       1.42581240       2.25801554      -1.00658871        1 
C       2.02596783      -2.14994453      -0.66258928        6 
H       3.00141021      -2.18272253      -1.15244945        1 
H       2.02875077      -2.87741248       0.15446399        1 
H       1.26366946      -2.43260634      -1.38767217        1 
