32
Lattice="0.0 0.0 0.0 0.0 0.0 0.0 0.0 0.0 0.0" Properties=species:S:1:pos:R:3:Z:I:1 pbc="F F F"
C      -0.23351885       1.12485399       0.36732466        6 
C       0.53815347      -0.20394224       0.73158483        6 
C      -1.59680961       0.93969004      -0.27175863        6 
C      -0.27316438      -1.45731268       0.40704643        6 
O      -2.57885341       1.16459550       0.62235690        8 
O      -1.78965699       0.70500410      -1.43937323        8 
O       0.43848738      -2.46503348      -0.11520020        8 
O      -1.44820722      -1.55627197       0.67207041        8 
C      -0.29159147      -3.67689987      -0.39599190        6 
C      -3.91686393       0.90790876       0.16118265        6 
C       0.77999633       1.80740008      -0.59181118        6 
C       1.86684118       2.48398090       0.26044810        6 
C       2.60085200       1.23210919       0.81282885        6 
C       1.91480712       0.06510852       0.02703444        6 
O       1.48582586       0.71313151      -1.18456378        8 
H      -0.38654188       1.71694551       1.26951460        1 
H       0.67131988      -0.25775621       1.81606703        1 
H      -1.08616477      -3.47820151      -1.11566849        1 
H      -4.14844720       1.51972227      -0.71199213        1 
H       2.52341690       3.07976603      -0.37591165        1 
H       1.45908507       3.13431781       1.03682494        1 
H       3.66625694       1.25813695       0.58138571        1 
H       2.49992946       1.11618292       1.89434257        1 
H       0.44294460      -4.36258826      -0.81240515        1 
H      -0.72398165      -4.08190014       0.51978029        1 
H      -4.56628531       1.16598961       0.99490684        1 
H      -4.02149116      -0.14784844      -0.09336819        1 
H       0.32337555       2.41139630      -1.37144969        1 
C       2.85925508      -1.07746452      -0.28705487        6 
H       3.79055961      -0.66650884      -0.68351550        1 
H       3.08982824      -1.64593776       0.61758469        1 
H       2.43169906      -1.75800715      -1.01756748        1 
