32
Lattice="0.0 0.0 0.0 0.0 0.0 0.0 0.0 0.0 0.0" Properties=species:S:1:pos:R:3:Z:I:1 pbc="F F F"
C       0.10472062       1.15310710       0.40520290        6 
C       0.56096536      -0.28766078       0.83098987        6 
C      -1.31434552       1.30260680      -0.10902067        6 
C      -0.32994198      -1.46814330       0.50277205        6 
O      -2.19221634       1.04041801       0.88713890        8 
O      -1.64150402       1.64187597      -1.21635826        8 
O      -1.11398730      -1.25772764      -0.56538814        8 
O      -0.26391104      -2.52558021       1.08519471        8 
C      -1.93172093      -2.35808702      -0.99883331        6 
C      -3.58333065       1.07112837       0.52461139        6 
C       1.18478309       1.53503892      -0.63762731        6 
C       2.46033346       1.96113619       0.11129269        6 
C       2.93261144       0.58891798       0.67117753        6 
C       1.91667400      -0.39508524       0.02186836        6 
O       1.56664368       0.27243847      -1.20015860        8 
H       0.16331666       1.80148763       1.28347890        1 
H       0.74971464      -0.34876434       1.90172947        1 
H      -2.60907315      -2.66693213      -0.20091624        1 
H      -3.86528949       2.06096317       0.16273392        1 
H       3.18757167       2.37415090      -0.58935552        1 
H       2.27124010       2.70788917       0.88485668        1 
H       3.94372792       0.34726038       0.33985512        1 
H       2.91799564       0.53572000       1.76170981        1 
H      -2.48649257      -1.98194672      -1.85539565        1 
H      -1.30695704      -3.20427990      -1.28810265        1 
H      -4.12725368       0.82650384       1.43449227        1 
H      -3.78576478       0.33317181      -0.25368941        1 
H       0.83106077       2.19416509      -1.42518584        1 
C       2.44837881      -1.78232811      -0.25754734        6 
H       3.38342381      -1.70729838      -0.81658437        1 
H       2.63455030      -2.31750890       0.67559406        1 
H       1.74116986      -2.36548274      -0.84892258        1 
