32
Lattice="0.0 0.0 0.0 0.0 0.0 0.0 0.0 0.0 0.0" Properties=species:S:1:pos:R:3:Z:I:1 pbc="F F F"
C      -0.75739624       0.71965609       0.91070684        6 
C       0.65057806       0.09160851       0.66021792        6 
C      -1.99062842      -0.07634710       0.50136444        6 
C       0.71760222      -1.38490129       0.32975330        6 
O      -2.11978005      -0.20898317      -0.82295010        8 
O      -2.82896926      -0.43125372       1.29922032        8 
O       1.93517197      -1.86379299       0.68607908        8 
O      -0.12986731      -2.07268605      -0.18003158        8 
C       2.17969999      -3.25081085       0.38658244        6 
C      -3.22461169      -1.00728975      -1.27607320        6 
C      -0.61620662       2.01761288       0.05935865        6 
C       0.40350882       2.97179434       0.72725943        6 
C       1.75114860       2.31472931       0.30838476        6 
C       1.25517381       1.05359260      -0.44310237        6 
O       0.08312933       1.55458499      -1.09922009        8 
H      -0.89677690       0.93707616       1.96857163        1 
H       1.24891001       0.19955932       1.56560604        1 
H       2.14546252      -3.42039494      -0.69107312        1 
H      -3.10336087      -2.03464950      -0.92890041        1 
H       0.30668538       3.97826022       0.31809971        1 
H       0.26852094       3.03335063       1.80909129        1 
H       2.30332795       2.95331323      -0.38386665        1 
H       2.40544290       2.07557816       1.14869085        1 
H       3.17390596      -3.46022537       0.77497815        1 
H       1.43506351      -3.88251643       0.87258015        1 
H      -3.18270079      -0.96599762      -2.36229535        1 
H      -4.17071641      -0.60622113      -0.90931969        1 
H      -1.56014492       2.46935502      -0.23626618        1 
C       2.21020943       0.44339607      -1.44173850        6 
H       2.52143598       1.19874173      -2.16647190        1 
H       3.09601938       0.05680359      -0.93438663        1 
H       1.73194599      -0.37578039      -1.98376583        1 
