32
Lattice="0.0 0.0 0.0 0.0 0.0 0.0 0.0 0.0 0.0" Properties=species:S:1:pos:R:3:Z:I:1 pbc="F F F"
C       0.09595789       0.97266102       0.43932082        6 
C       0.59313823      -0.50951748       0.66623816        6 
C      -1.26423405       1.17628099      -0.20005434        6 
C      -0.31114529      -1.64062150       0.18537974        6 
O      -2.19820344       1.44412514       0.73971626        8 
O      -1.48542395       1.21194277      -1.38492645        8 
O      -1.61407698      -1.32250910       0.31669940        8 
O       0.05810553      -2.72833820      -0.17946350        8 
C      -2.56268665      -2.32515959      -0.09262554        6 
C      -3.53400980       1.64558148       0.25125623        6 
C       1.24123013       1.54116111      -0.44554227        6 
C       2.42460973       1.90200771       0.46710759        6 
C       2.90143722       0.48190161       0.87543281        6 
C       2.00871263      -0.44131105      -0.01475269        6 
O       1.72550425       0.39728019      -1.15164544        8 
H       0.05809639       1.48180662       1.40246221        1 
H       0.69787582      -0.69460190       1.73959810        1 
H      -2.40759867      -3.24918320       0.46561998        1 
H      -3.57216541       2.50122519      -0.42490471        1 
H       3.18944935       2.42877923      -0.10566180        1 
H       2.13516974       2.53042786       1.31209636        1 
H       3.95310731       0.32569427       0.63250205        1 
H       2.77320831       0.27264247       1.93990274        1 
H      -3.54077659      -1.90319889       0.12723444        1 
H      -2.46124381      -2.52323797      -1.16036172        1 
H      -4.14412567       1.82679015       1.13362548        1 
H      -3.88197620       0.75784367      -0.27999858        1 
H       0.92291600       2.29980032      -1.15573676        1 
C       2.70185520      -1.71161418      -0.45887140        6 
H       3.67450097      -1.44551265      -0.87970981        1 
H       2.86053200      -2.38212172       0.38877622        1 
H       2.12245492      -2.24642543      -1.20632596        1 
