32
Lattice="0.0 0.0 0.0 0.0 0.0 0.0 0.0 0.0 0.0" Properties=species:S:1:pos:R:3:Z:I:1 pbc="F F F"
C      -0.31235577       1.01512736       0.49397299        6 
C       0.68343311      -0.15924907       0.81276309        6 
C      -1.61137992       0.59708384      -0.16148642        6 
C      -0.01860496      -1.50861643       0.72148973        6 
O      -2.63982313       1.32669633       0.32154055        8 
O      -1.73295313      -0.22728670      -1.03338856        8 
O       0.42362728      -2.32345857      -0.24034471        8 
O      -0.91739701      -1.79331639       1.48007199        8 
C      -0.32025254      -3.54319259      -0.42738552        6 
C      -3.93315702       1.04043129      -0.24466949        6 
C       0.54457809       1.85120707      -0.50826932        6 
C       1.63460632       2.60175897       0.28067282        6 
C       2.60328629       1.43259209       0.60989617        6 
C       1.90978580       0.22031011      -0.08576429        6 
O       1.27746946       0.85445589      -1.21755778        8 
H      -0.55487106       1.59007358       1.38534022        1 
H       0.96414672      -0.09003379       1.86596584        1 
H      -1.35269710      -3.30667399      -0.68603498        1 
H      -3.93694439       1.24954676      -1.31563483        1 
H       2.11187956       3.34860056      -0.35557718        1 
H       1.24192225       3.11053513       1.16320817        1 
H       3.58472989       1.59587189       0.16242419        1 
H       2.74444416       1.27407921       1.68090514        1 
H       0.17412681      -4.05685622      -1.24905282        1 
H      -0.29712224      -4.15007972       0.47849782        1 
H      -4.62843949       1.69438983       0.27686349        1 
H      -4.19260153      -0.00629376      -0.08042547        1 
H      -0.03525056       2.45220463      -1.20638309        1 
C       2.87079076      -0.85710325      -0.53853869        6 
H       3.69353222      -0.39826272      -1.09161980        1 
H       3.28862422      -1.37942738       0.32671363        1 
H       2.37433254      -1.58518849      -1.17365556        1 
