32
Lattice="0.0 0.0 0.0 0.0 0.0 0.0 0.0 0.0 0.0" Properties=species:S:1:pos:R:3:Z:I:1 pbc="F F F"
C      -0.19631692       0.98406049       0.81693390        6 
C       0.65357761      -0.32488855       0.67084597        6 
C      -1.67865688       0.77391488       0.55722098        6 
C      -0.08562363      -1.48678726       0.04250527        6 
O      -2.14048939       1.47703449      -0.48581005        8 
O      -2.36672417       0.06371629       1.25219544        8 
O       0.25600063      -2.64673227       0.64393178        8 
O      -0.84141323      -1.42166704      -0.89497962        8 
C      -0.36297251      -3.83412234       0.11317242        6 
C      -3.51308606       1.23709338      -0.84968183        6 
C       0.56893198       1.95656659      -0.11422059        6 
C       1.84533535       2.42989669       0.61189003        6 
C       2.70782804       1.13658469       0.55525618        6 
C       1.80445506       0.18513940      -0.27826542        6 
O       1.09461730       1.09543554      -1.13245724        8 
H      -0.14680369       1.31869051       1.85615862        1 
H       1.05524939      -0.65580399       1.62662332        1 
H      -0.07933313      -3.97884460      -0.93052599        1 
H      -3.65406612       0.18042656      -1.07874626        1 
H       2.31462391       3.24301016       0.05606146        1 
H       1.65179567       2.78012279       1.62794981        1 
H       3.65007646       1.30607748       0.03092980        1 
H       2.94035804       0.72668616       1.54004913        1 
H       0.00561580      -4.65237374       0.72777258        1 
H      -1.44855725      -3.75653980       0.18460667        1 
H      -3.68787767       1.84851633      -1.73223208        1 
H      -4.18221481       1.52904668      -0.03886032        1 
H      -0.04248875       2.73043811      -0.56706007        1 
C       2.52681339      -0.86757915      -1.08900253        6 
H       3.29444381      -0.39692289      -1.70640028        1 
H       3.00625911      -1.59493507      -0.42918577        1 
H       1.83177584      -1.39285180      -1.74571673        1 
