32
Lattice="0.0 0.0 0.0 0.0 0.0 0.0 0.0 0.0 0.0" Properties=species:S:1:pos:R:3:Z:I:1 pbc="F F F"
C      -0.03404779       1.01858430       0.55038573        6 
C       0.66624507      -0.37316294       0.70426731        6 
C      -1.33461309       1.08849260      -0.23543096        6 
C      -0.09552884      -1.67377623       0.52980307        6 
O      -2.34793779       1.46050287       0.58774909        8 
O      -1.48026212       0.88811196      -1.41183731        8 
O      -1.34652677      -1.53224442       0.07255923        8 
O       0.38229882      -2.74261759       0.83441380        8 
C      -2.11142855      -2.74019581      -0.09627728        6 
C      -3.64639704       1.54932561      -0.02314084        6 
C       1.07121200       1.77435705      -0.24755405        6 
C       2.31406591       2.00196729       0.64570010        6 
C       2.98065713       0.59632314       0.59683532        6 
C       1.94137209      -0.20687442      -0.22715108        6 
O       1.50578424       0.78044228      -1.17334391        8 
H      -0.21425659       1.46397462       1.52764833        1 
H       1.02063099      -0.45509152       1.73392165        1 
H      -2.25280528      -3.23776507       0.86437149        1 
H      -3.64338928       2.28206558      -0.83180219        1 
H       2.95963543       2.76565539       0.20998983        1 
H       2.04800126       2.32263152       1.65540254        1 
H       3.92508676       0.62696325       0.05080931        1 
H       3.16807460       0.16233817       1.58040199        1 
H      -3.06478730      -2.41999745      -0.51021762        1 
H      -1.60282482      -3.41711261      -0.78328621        1 
H      -4.32242238       1.85834922       0.77144565        1 
H      -3.94354949       0.57850528      -0.42375702        1 
H       0.71382320       2.64802016      -0.78805752        1 
C       2.45963890      -1.43093305      -0.94415714        6 
H       3.31909077      -1.15262583      -1.55821885        1 
H       2.76182705      -2.19986098      -0.23215478        1 
H       1.69318514      -1.85323741      -1.59701894        1 
