32
Lattice="0.0 0.0 0.0 0.0 0.0 0.0 0.0 0.0 0.0" Properties=species:S:1:pos:R:3:Z:I:1 pbc="F F F"
C      -0.46308905       0.83538534       0.66871112        6 
C       0.80012333      -0.08926881       0.79131974        6 
C      -1.74634198       0.19886564       0.15599539        6 
C       0.51047501      -1.58194892       0.70957792        6 
O      -2.65661415       1.16308128      -0.11066129        8 
O      -1.98664802      -0.97546912       0.04176692        8 
O       0.56934849      -2.08036187      -0.53414233        8 
O       0.24969703      -2.24024379       1.68804715        8 
C       0.13104946      -3.44253712      -0.68396382        6 
C      -3.94923720       0.70679688      -0.55363755        6 
C       0.07153117       1.92192719      -0.31065748        6 
C       1.10205219       2.81033951       0.41561259        6 
C       2.33071200       1.86193942       0.45581386        6 
C       1.77773615       0.58420773      -0.23773731        6 
O       0.87064709       1.15012500      -1.21025457        8 
H      -0.72177384       1.27324003       1.63577845        1 
H       1.20433213       0.02637446       1.79761943        1 
H      -0.91828556      -3.51977319      -0.39737238        1 
H      -3.85767371       0.16460546      -1.49593671        1 
H       1.30823259       3.70705907      -0.17071066        1 
H       0.75847116       3.12519050       1.40328262        1 
H       3.15866739       2.26137996      -0.13183083        1 
H       2.69706283       1.66420150       1.46472326        1 
H       0.26110985      -3.67322967      -1.73929986        1 
H       0.73197195      -4.11074841      -0.06556146        1 
H      -4.54388238       1.60780538      -0.68654458        1 
H      -4.40015154       0.05387058       0.19501771        1 
H      -0.70478554       2.44765785      -0.85822850        1 
C       2.83470617      -0.26757880      -0.90632562        6 
H       3.48520067       0.36560199      -1.51412086        1 
H       3.45010860      -0.76471297      -0.15093665        1 
H       2.38215062      -1.02780132      -1.53800964        1 
