32
Lattice="0.0 0.0 0.0 0.0 0.0 0.0 0.0 0.0 0.0" Properties=species:S:1:pos:R:3:Z:I:1 pbc="F F F"
C      -0.87694445      -0.38018272      -0.75295142        6 
C       0.64596279      -0.15184122      -0.63239517        6 
C      -1.72449979       0.51091119       0.14299619        6 
C       1.08661492       1.29766109      -0.55659714        6 
O      -3.01772306       0.45127347      -0.25917654        8 
O      -1.35179696       1.14705160       1.09199649        8 
O       2.39973174       1.39629681      -0.25768098        8 
O       0.39525236       2.24854972      -0.81968523        8 
C       2.93859128       2.73120428      -0.22224910        6 
C      -3.95474226       1.20508139       0.53136759        6 
C      -0.95209510      -1.81091777      -0.13869963        6 
C      -0.11815594      -2.82375174      -0.96675458        6 
C       1.32139516      -2.53710113      -0.44129978        6 
C       1.07688960      -1.26980076       0.41195642        6 
O      -0.17196231      -1.62679925       1.04426976        8 
H      -1.24856169      -0.32933950      -1.77548575        1 
H       1.08348066      -0.45146401      -1.59241171        1 
H       2.40450586       3.33637715       0.51135454        1 
H      -3.97903057       0.82915837       1.55576181        1 
H      -0.43098910      -3.84571236      -0.74939499        1 
H      -0.22523030      -2.66320215      -2.04214601        1 
H       1.67474483      -3.34509152       0.20235721        1 
H       2.05578648      -2.38082555      -1.23395829        1 
H       3.98202339       2.61400524       0.06220643        1 
H       2.85821769       3.20196947      -1.20348630        1 
H      -4.92010342       1.06533847       0.04936589        1 
H      -3.67913449       2.26046227       0.54258977        1 
H      -1.95748233      -2.13448412       0.12191362        1 
C       2.10470989      -0.94054876       1.46586589        6 
H       2.20291043      -1.79111463       2.14480520        1 
H       3.07384027      -0.73143828       1.01305473        1 
H       1.79651160      -0.06686923       2.04166930        1 
