32
Lattice="0.0 0.0 0.0 0.0 0.0 0.0 0.0 0.0 0.0" Properties=species:S:1:pos:R:3:Z:I:1 pbc="F F F"
C       0.26293488       1.13643618       0.49666959        6 
C       0.57105671      -0.36353361       0.83754316        6 
C      -1.13999968       1.65770791       0.25527614        6 
C      -0.55589173      -1.37154151       0.66298338        6 
O      -2.01325315       0.75276242      -0.20863849        8 
O      -1.42862223       2.81547888       0.45562596        8 
O      -0.81514226      -1.68372891      -0.61456874        8 
O      -1.11071347      -1.89547817       1.60209294        8 
C      -1.90340761      -2.59345329      -0.83300174        6 
C      -3.35432784       1.22090771      -0.44726418        6 
C       1.22809326       1.38386468      -0.71911850        6 
C       2.62585820       1.67801326      -0.14865647        6 
C       2.98380027       0.27667706       0.42203493        6 
C       1.80699861      -0.60686451      -0.10004543        6 
O       1.39757803       0.09056542      -1.29395123        8 
H       0.60352654       1.75235419       1.32889466        1 
H       0.84911482      -0.44866116       1.88734964        1 
H      -2.82143491      -2.19627663      -0.39664664        1 
H      -3.81032201       1.55484837       0.48571750        1 
H       3.30250087       1.96058825      -0.95673590        1 
H       2.62654035       2.47353854       0.59849117        1 
H       3.93095143      -0.09027957       0.02412431        1 
H       3.05254868       0.26077989       1.51183146        1 
H      -1.99645384      -2.67771296      -1.91371527        1 
H      -1.69055389      -3.56744376      -0.38849458        1 
H      -3.88985355       0.36445652      -0.85074052        1 
H      -3.34912272       2.04406410      -1.16249490        1 
H       0.85430311       2.08151209      -1.46540000        1 
C       2.19389932      -2.03953137      -0.39728611        6 
H       3.06459660      -2.05556347      -1.05647775        1 
H       2.45805975      -2.55491643       0.53036951        1 
H       1.38189542      -2.57853051      -0.88214243        1 
