32
Lattice="0.0 0.0 0.0 0.0 0.0 0.0 0.0 0.0 0.0" Properties=species:S:1:pos:R:3:Z:I:1 pbc="F F F"
C      -0.52215026       0.83633212       0.62572627        6 
C       0.76612960      -0.04023884       0.79967264        6 
C      -1.72395476       0.15853103      -0.00252129        6 
C       0.47149213      -1.53474300       0.75586584        6 
O      -2.80529665       0.96263738       0.11660777        8 
O      -1.75589657      -0.91194139      -0.55360513        8 
O       0.86362095      -2.15949837      -0.35980891        8 
O      -0.06087465      -2.09196158       1.68788865        8 
C       0.45109787      -3.53252820      -0.48750875        6 
C      -4.02643243       0.46828787      -0.46654058        6 
C       0.01213819       1.93675856      -0.34256255        6 
C       0.98516354       2.85978774       0.41924975        6 
C       2.24290962       1.95202399       0.50166973        6 
C       1.75609811       0.65308505      -0.20438233        6 
O       0.86470738       1.18956165      -1.20920736        8 
H      -0.85015954       1.26996094       1.57027368        1 
H       1.13040050       0.10573389       1.81807844        1 
H      -0.63803198      -3.58346428      -0.50759771        1 
H      -3.90360424       0.32028628      -1.54055617        1 
H       1.18130744       3.76347841      -0.15988666        1 
H       0.59585145       3.16085084       1.39388838        1 
H       3.07467097       2.38006956      -0.05995741        1 
H       2.58289980       1.77121582       1.52304478        1 
H       0.86913687      -3.87241971      -1.43269552        1 
H       0.83331676      -4.12904326       0.34173973        1 
H      -4.77272981       1.23410883      -0.26738604        1 
H      -4.31271090      -0.47693776      -0.00321206        1 
H      -0.76168058       2.43842368      -0.91909743        1 
C       2.86274298      -0.15683650      -0.84342149        6 
H       3.50989903       0.50540426      -1.42327713        1 
H       3.46904375      -0.64212071      -0.07351578        1 
H       2.45796399      -0.92672751      -1.49444187        1 
