32
Lattice="0.0 0.0 0.0 0.0 0.0 0.0 0.0 0.0 0.0" Properties=species:S:1:pos:R:3:Z:I:1 pbc="F F F"
C       0.25501790       0.84261476       0.90370169        6 
C       0.42067863      -0.65320694       0.49800414        6 
C      -0.71798974       1.70242718       0.07963182        6 
C      -0.80916356      -1.49594429       0.22786697        6 
O      -1.79857899       1.03401368      -0.36050440        8 
O      -0.50190334       2.85283113      -0.21387245        8 
O      -1.76628307      -1.21673200       1.13873991        8 
O      -0.87571186      -2.43777908      -0.52370890        8 
C      -2.96727186      -2.00015989       1.05313021        6 
C      -2.68735729       1.77054091      -1.22240574        6 
C       1.66691736       1.33567324       0.48438294        6 
C       2.79920495       0.58410246       1.22673733        6 
C       2.89513235      -0.73458055       0.40345371        6 
C       1.64365825      -0.60745190      -0.49723915        6 
O       1.71877070       0.79370536      -0.84673978        8 
H       0.02455829       0.96302408       1.96386475        1 
H       0.77957751      -1.15193973       1.40724605        1 
H      -2.74697182      -3.06239281       1.17059201        1 
H      -3.13233993       2.60862541      -0.68402156        1 
H       3.72755247       1.15435353       1.18508127        1 
H       2.55929081       0.41704141       2.27999241        1 
H       3.78977051      -0.74615502      -0.22202935        1 
H       2.89074116      -1.63875886       1.01563807        1 
H      -3.60235541      -1.64738947       1.86287456        1 
H      -3.45558626      -1.84038001       0.08995932        1 
H      -3.45286422       1.05820112      -1.52289577        1 
H      -2.14592036       2.14639258      -2.09107667        1 
H       1.75867274       2.41572954       0.44496727        1 
C       1.61811804      -1.45603597      -1.74483124        6 
H       2.51269416      -1.24405916      -2.33604951        1 
H       1.59892011      -2.51626870      -1.49224547        1 
H       0.73640266      -1.24309234      -2.34951688        1 
