32
Lattice="0.0 0.0 0.0 0.0 0.0 0.0 0.0 0.0 0.0" Properties=species:S:1:pos:R:3:Z:I:1 pbc="F F F"
C      -0.24432704       0.86511108      -0.92385635        6 
C      -0.47127614      -0.63243659      -0.59730115        6 
C       0.89523167       1.62916472      -0.26575779        6 
C       0.67956171      -1.61071676      -0.45715942        6 
O       1.30789676       1.10232691       0.89388097        8 
O       1.28705061       2.69162888      -0.69388315        8 
O       1.89351831      -1.05848697      -0.61715235        8 
O       0.50513757      -2.80670727      -0.39601814        8 
C       3.00424330      -1.97305644      -0.67008717        6 
C       2.29931823       1.85240280       1.61349454        6 
C      -1.55652157       1.43127750      -0.28356452        6 
C      -2.81568315       0.85019528      -0.97789731        6 
C      -2.93887796      -0.53862711      -0.28228651        6 
C      -1.60975738      -0.58809666       0.50566147        6 
O      -1.54385869       0.77138693       0.98521126        8 
H      -0.18203636       1.05953569      -1.99364956        1 
H      -0.94633140      -1.05456196      -1.48922477        1 
H       2.87940723      -2.67633345      -1.49479589        1 
H       3.20333311       1.96493482       1.01251979        1 
H      -3.68423046       1.47945051      -0.78022815        1 
H      -2.69436712       0.78141886      -2.06124371        1 
H      -3.77605559      -0.55673120       0.41831576        1 
H      -3.05277537      -1.37068291      -0.97947702        1 
H       3.88237330      -1.35001261      -0.82413600        1 
H       3.08467709      -2.52826780       0.26537180        1 
H       2.50467456       1.27341374       2.51124099        1 
H       1.91677145       2.84062634       1.87336525        1 
H      -1.55301906       2.51022861      -0.14648283        1 
C      -1.52525150      -1.56451368       1.65201257        6 
H      -2.34747768      -1.38046218       2.34706721        1 
H      -1.58745893      -2.59025059       1.28616024        1 
H      -0.58235368      -1.44873722       2.19054745        1 
