32
Lattice="0.0 0.0 0.0 0.0 0.0 0.0 0.0 0.0 0.0" Properties=species:S:1:pos:R:3:Z:I:1 pbc="F F F"
C       0.18879686       1.21757002       0.47859450        6 
C       0.59952174      -0.26504373       0.84127273        6 
C      -1.13593569       1.40223848      -0.25193586        6 
C      -0.53692782      -1.26821658       0.78696070        6 
O      -2.16199025       0.95797500       0.49934544        8 
O      -1.27654738       1.92007831      -1.33072660        8 
O      -0.80379011      -1.68887777      -0.46577124        8 
O      -1.19682143      -1.58181725       1.74688530        8 
C      -1.94628987      -2.55002669      -0.61635116        6 
C      -3.47485403       1.06440497      -0.07958297        6 
C       1.37134958       1.61868031      -0.43202246        6 
C       2.65700904       1.76795860       0.40831277        6 
C       3.03277516       0.27848351       0.64521890        6 
C       1.86593471      -0.46092049      -0.06773028        6 
O       1.60147254       0.41577301      -1.17715669        8 
H       0.12890176       1.81700179       1.38948245        1 
H       0.89863228      -0.28457470       1.88956426        1 
H      -2.84859771      -2.04417157      -0.26965654        1 
H      -3.74052952       2.11137746      -0.23410476        1 
H       3.42569277       2.28753537      -0.16500851        1 
H       2.49179691       2.32609523       1.33270005        1 
H       3.97284845       0.02561070       0.15206657        1 
H       3.12085379       0.01091525       1.69975178        1 
H      -2.00884535      -2.76290910      -1.68118546        1 
H      -1.81173235      -3.47047783      -0.04618544        1 
H      -4.14491803       0.60078702       0.64093881        1 
H      -3.51217827       0.54185976      -1.03677018        1 
H       1.14274990       2.43133519      -1.11507588        1 
C       2.19692464      -1.85944979      -0.54063637        6 
H       3.11866048      -1.83837307      -1.12608074        1 
H       2.35109619      -2.52278638       0.31555002        1 
H       1.39692193      -2.26340411      -1.15778422        1 
