32
Lattice="0.0 0.0 0.0 0.0 0.0 0.0 0.0 0.0 0.0" Properties=species:S:1:pos:R:3:Z:I:1 pbc="F F F"
C       0.13531993       1.02750186       0.80028463        6 
C       0.73113537      -0.42905754       0.82127368        6 
C      -1.36548276       1.09984490       0.57029058        6 
C      -0.21653985      -1.59159387       0.60948783        6 
O      -1.69642896       1.49977886      -0.66704148        8 
O      -2.17383930       0.88432241       1.44325359        8 
O      -1.09264267      -1.37985494      -0.38883426        8 
O      -0.15586348      -2.62213358       1.23659560        8 
C      -2.03289983      -2.43810847      -0.64856563        6 
C      -3.10309957       1.55886810      -0.95526814        6 
C       1.01749772       1.68626692      -0.29091441        6 
C       2.42889946       1.93797059       0.28139451        6 
C       3.00869012       0.49482236       0.28658977        6 
C       1.82915007      -0.32077500      -0.30653737        6 
O       1.23671561       0.61741674      -1.21907146        8 
H       0.28587560       1.48700350       1.77838057        1 
H       1.20205883      -0.63392642       1.78115088        1 
H      -2.65810973      -2.61022324       0.22867557        1 
H      -3.55774838       0.57697926      -0.81523930        1 
H       2.99403118       2.58897277      -0.38721542        1 
H       2.40658354       2.40414206       1.26863855        1 
H       3.87775714       0.41286719      -0.36858308        1 
H       3.29887238       0.14425360       1.27859557        1 
H      -2.63276829      -2.09109346      -1.48710538        1 
H      -1.50870370      -3.35928003      -0.90657359        1 
H      -3.17225420       1.86878688      -1.99566975        1 
H      -3.59980935       2.27922062      -0.30341515        1 
H       0.55630198       2.52603422      -0.80225930        1 
C       2.20306418      -1.60266192      -1.01419379        6 
H       2.94813037      -1.39452945      -1.78474713        1 
H       2.62316280      -2.32207025      -0.30727540        1 
H       1.33062628      -2.05203388      -1.49115432        1 
