32
Lattice="0.0 0.0 0.0 0.0 0.0 0.0 0.0 0.0 0.0" Properties=species:S:1:pos:R:3:Z:I:1 pbc="F F F"
C       0.16980784       1.04269047       0.82118271        6 
C       0.72109283      -0.43303142       0.81716781        6 
C      -1.31413032       1.18136956       0.51728020        6 
C      -0.28623748      -1.55723064       0.69763358        6 
O      -1.57133639       1.44056563      -0.77279908        8 
O      -2.16658882       1.13731226       1.37428585        8 
O      -1.12039002      -1.40683960      -0.34784788        8 
O      -0.32347031      -2.50296506       1.44796446        8 
C      -2.12460664      -2.42480951      -0.51245313        6 
C      -2.95750420       1.55000888      -1.13203485        6 
C       1.10603555       1.68580073      -0.23485662        6 
C       2.53068490       1.81292431       0.35180451        6 
C       3.03275169       0.34453673       0.24082330        6 
C       1.78453340      -0.36674423      -0.34368661        6 
O       1.24704881       0.64528967      -1.20877660        8 
H       0.29761945       1.47622538       1.81303600        1 
H       1.22493508      -0.63389772       1.76127301        1 
H      -2.78192587      -2.45048551       0.35783165        1 
H      -3.48235362       0.62230727      -0.89793906        1 
H       3.13315055       2.48794870      -0.25751258        1 
H       2.52822655       2.19446918       1.37515187        1 
H       3.86105589       0.26072993      -0.46501216        1 
H       3.35343667      -0.08142379       1.19309244        1 
H      -2.67804525      -2.14174542      -1.40529560        1 
H      -1.65956620      -3.40294965      -0.64296421        1 
H      -2.96423722       1.73344584      -2.20424516        1 
H      -3.43192638       2.37401438      -0.59652406        1 
H       0.70852680       2.57837797      -0.70990467        1 
C       2.05160360      -1.64671347      -1.10262621        6 
H       2.80180012      -1.46780507      -1.87562191        1 
H       2.42737016      -2.41999570      -0.42763479        1 
H       1.14265068      -2.01149205      -1.58324046        1 
