32
Lattice="0.0 0.0 0.0 0.0 0.0 0.0 0.0 0.0 0.0" Properties=species:S:1:pos:R:3:Z:I:1 pbc="F F F"
C       0.21002023       0.93563010       0.88909376        6 
C       0.60476081      -0.55955181       0.67793635        6 
C      -1.13496088       1.46306799       0.41344048        6 
C      -0.43089864      -1.66063336       0.54462448        6 
O      -1.38608420       1.21624289      -0.87915152        8 
O      -1.84110006       2.15907133       1.10851500        8 
O      -1.67360384      -1.24655499       0.25794219        8 
O      -0.15395683      -2.82016688       0.75366489        8 
C      -2.68802889      -2.26727103       0.19267617        6 
C      -2.62639089       1.72508760      -1.39164418        6 
C       1.34077893       1.60513068       0.04290106        6 
C       2.71940104       1.36045062       0.70553015        6 
C       3.02448478      -0.09411137       0.24284252        6 
C       1.70034679      -0.46882743      -0.46525256        6 
O       1.37984539       0.77241480      -1.11663778        8 
H       0.26983066       1.21008724       1.94102850        1 
H       1.12646938      -0.87846499       1.58254191        1 
H      -2.76694321      -2.78749672       1.14812313        1 
H      -3.46852035       1.28786697      -0.85152716        1 
H       3.45696449       2.06627745       0.32140729        1 
H       2.68293647       1.47268006       1.79128534        1 
H       3.83955199      -0.11314435      -0.48343178        1 
H       3.27897900      -0.77149958       1.05998240        1 
H      -3.61128193      -1.73931276      -0.03504728        1 
H      -2.45170197      -2.98710591      -0.59185784        1 
H      -2.64851221       1.43006092      -2.43854128        1 
H      -2.66833219       2.81145272      -1.29752365        1 
H       1.13635974       2.63417128      -0.24562902        1 
C       1.75965926      -1.59881062      -1.46404929        6 
H       2.53423797      -1.39159392      -2.20528570        1 
H       1.98930049      -2.54092860      -0.96354274        1 
H       0.80459534      -1.70746915      -1.98292732        1 
