32
Lattice="0.0 0.0 0.0 0.0 0.0 0.0 0.0 0.0 0.0" Properties=species:S:1:pos:R:3:Z:I:1 pbc="F F F"
C      -0.80937675      -0.50076479      -0.49510712        6 
C       0.66315385      -0.04565652      -0.65679570        6 
C      -1.86287512       0.56677727      -0.29087919        6 
C       1.04530418       1.22858467       0.07867499        6 
O      -3.05260902      -0.01699305      -0.01119203        8 
O      -1.71307567       1.75731494      -0.38186212        8 
O       1.96838815       1.91114770      -0.64404478        8 
O       0.64402807       1.58958326       1.15231119        8 
C       2.44001628       3.13420927      -0.05156958        6 
C      -4.16266674       0.87834885       0.19060537        6 
C      -0.69597135      -1.67879240       0.52679073        6 
C      -0.33456303      -2.94151743      -0.27609170        6 
C       1.09845749      -2.55830370      -0.74886052        6 
C       1.37716262      -1.25653454       0.06412149        6 
O       0.52779611      -1.41560615       1.21486989        8 
H      -1.11348852      -0.93903073      -1.45352554        1 
H       0.96508873       0.04457889      -1.69836206        1 
H       2.94440210       2.93192749       0.89507462        1 
H      -3.95228952       1.56377708       1.01254480        1 
H      -0.31309514      -3.80955038       0.38488897        1 
H      -1.02851230      -3.14818318      -1.09328534        1 
H       1.82859216      -3.32569228      -0.48648223        1 
H       1.16630258      -2.38997886      -1.82597048        1 
H       3.13592946       3.55773077      -0.77269206        1 
H       1.60547013       3.81408938       0.12536550        1 
H      -5.01009611       0.23953947       0.42962070        1 
H      -4.35891376       1.45335476      -0.71593232        1 
H      -1.51797931      -1.76244959       1.23133962        1 
C       2.81579026      -1.05200775       0.48317088        6 
H       3.17922876      -1.94415699       0.99753835        1 
H       3.44687383      -0.87036074      -0.39023063        1 
H       2.91036126      -0.20432467       1.16395864        1 
