32
Lattice="0.0 0.0 0.0 0.0 0.0 0.0 0.0 0.0 0.0" Properties=species:S:1:pos:R:3:Z:I:1 pbc="F F F"
C      -0.83693045      -0.45381538      -0.44772958        6 
C       0.63389229      -0.02950604      -0.66981439        6 
C      -1.89002781       0.62043796      -0.28172949        6 
C       1.08691796       1.22041901       0.06721061        6 
O      -3.08874830       0.03135263      -0.04260435        8 
O      -1.74226340       1.81113059      -0.36067114        8 
O       2.12494415       1.78578978      -0.60137569        8 
O       0.63561290       1.66618812       1.08701493        8 
C       2.67918463       2.96936979      -0.00080449        6 
C      -4.20659025       0.92300894       0.12671760        6 
C      -0.71543166      -1.59973319       0.61155859        6 
C      -0.44359200      -2.89759859      -0.16904834        6 
C       0.96331171      -2.56725576      -0.74818017        6 
C       1.34269505      -1.26498885       0.02404249        6 
O       0.55404719      -1.36611671       1.22458994        8 
H      -1.16030695      -0.93106942      -1.38100339        1 
H       0.89946621       0.05915740      -1.72153356        1 
H       3.06860331       2.74809686       0.99465242        1 
H      -4.02531483       1.60629816       0.95737803        1 
H      -0.39913220      -3.74403697       0.51830095        1 
H      -1.19624813      -3.10847291      -0.93108056        1 
H       1.68420488      -3.35680549      -0.53102987        1 
H       0.95779783      -2.41252956      -1.82946439        1 
H       3.48180476       3.28402167      -0.66444416        1 
H       1.91697788       3.74591498       0.07863744        1 
H      -5.05999733       0.28149530       0.33572778        1 
H      -4.37524055       1.50105852      -0.78351789        1 
H      -1.50017800      -1.62757359       1.36180476        1 
C       2.81013514      -1.12261412       0.36032020        6 
H       3.15940849      -2.02714606       0.86297820        1 
H       3.39827456      -0.97636875      -0.54842796        1 
H       2.98368297      -0.27521754       1.02503377        1 
