32
Lattice="0.0 0.0 0.0 0.0 0.0 0.0 0.0 0.0 0.0" Properties=species:S:1:pos:R:3:Z:I:1 pbc="F F F"
C       0.30051262       0.87409111       0.85513518        6 
C       0.44085580      -0.65248215       0.53915486        6 
C      -0.75097817       1.68191131       0.09212874        6 
C      -0.83448542      -1.40084250       0.20186494        6 
O      -1.73926972       0.93781248      -0.42819496        8 
O      -0.67502841       2.87720548      -0.05951148        8 
O      -1.67931605      -1.32118872       1.25886254        8 
O      -1.06273642      -2.07312465      -0.77088288        8 
C      -2.95420324      -1.96085531       1.08986317        6 
C      -2.70357410       1.63062636      -1.24374317        6 
C       1.67699548       1.36017735       0.33171274        6 
C       2.84053063       0.71986548       1.12288413        6 
C       2.92566068      -0.68541275       0.46243480        6 
C       1.67182242      -0.67092420      -0.44667768        6 
O       1.71472210       0.68962808      -0.93707141        8 
H       0.14999810       1.06202300       1.92005533        1 
H       0.75163613      -1.12780677       1.47419887        1 
H      -2.82812046      -3.02425207       0.88156690        1 
H      -3.24100613       2.37164011      -0.65039461        1 
H       3.75949876       1.28951842       0.97940674        1 
H       2.63628681       0.68256188       2.19571941        1 
H       3.81800185      -0.77309442      -0.16024117        1 
H       2.92565257      -1.50955856       1.17882277        1 
H      -3.48204586      -1.81404081       2.02988083        1 
H      -3.50315937      -1.49678386       0.26828772        1 
H      -3.38034371       0.86012411      -1.60605948        1 
H      -2.20339024       2.12585884      -2.07654090        1 
H       1.73120169       2.43480305       0.18816651        1 
C       1.69234913      -1.64575532      -1.60076977        6 
H       2.61941013      -1.50857839      -2.16299418        1 
H       1.65201969      -2.67420396      -1.23617217        1 
H       0.84188031      -1.49406521      -2.26160314        1 
