32
Lattice="0.0 0.0 0.0 0.0 0.0 0.0 0.0 0.0 0.0" Properties=species:S:1:pos:R:3:Z:I:1 pbc="F F F"
C       0.07360065       1.10979394       0.33666213        6 
C       0.50541252      -0.29552986       0.83787558        6 
C      -1.37934976       1.41497409       0.04235579        6 
C      -0.32875682      -1.49043059       0.41847691        6 
O      -2.22039826       0.61195708       0.72238821        8 
O      -1.74310179       2.39200214      -0.56755934        8 
O      -0.94840600      -1.31612397      -0.76030448        8 
O      -0.32167181      -2.54107318       1.01779910        8 
C      -1.68712488      -2.43949391      -1.26620711        6 
C      -3.62421524       0.89881992       0.58890858        6 
C       1.10710410       1.41913427      -0.78315884        6 
C       2.36786461       1.98108670      -0.10341843        6 
C       2.83735414       0.71951708       0.67752694        6 
C       1.90680666      -0.39299864       0.10028795        6 
O       1.55884121       0.12444663      -1.19692542        8 
H       0.26034346       1.80843866       1.16208841        1 
H       0.61491173      -0.34773869       1.91940692        1 
H      -2.51343949      -2.68288331      -0.59540978        1 
H      -3.84455091       1.91060690       0.93211060        1 
H       3.09839090       2.27139578      -0.86028515        1 
H       2.16866433       2.84592529       0.53234186        1 
H       3.88133677       0.48095876       0.47009506        1 
H       2.72826197       0.81916909       1.75975893        1 
H      -2.06221190      -2.12515821      -2.23765455        1 
H      -1.03972165      -3.31142017      -1.36778155        1 
H      -4.12952723       0.16283550       1.21032670        1 
H      -3.93176941       0.79724336      -0.45308463        1 
H       0.71164829       1.97550758      -1.62823520        1 
C       2.53975787      -1.76082804      -0.01370488        6 
H       3.48826938      -1.67947237      -0.54877706        1 
H       2.72818636      -2.17602410       0.97863493        1 
H       1.89786376      -2.45732805      -0.55382171        1 
