32
Lattice="0.0 0.0 0.0 0.0 0.0 0.0 0.0 0.0 0.0" Properties=species:S:1:pos:R:3:Z:I:1 pbc="F F F"
C       0.01837877       1.12268546       0.80553947        6 
C       0.54516284      -0.34641432       0.70545931        6 
C      -1.41132606       1.39541119       0.36696404        6 
C      -0.53966132      -1.40127823       0.55908181        6 
O      -1.65204823       0.99547520      -0.89328827        8 
O      -2.21270938       1.98511382       1.05126266        8 
O      -0.02973654      -2.59866468       0.21023862        8 
O      -1.70248317      -1.24131286       0.83765678        8 
C      -0.96631875      -3.69116388       0.13830680        6 
C      -3.00251719       1.15924128      -1.35739102        6 
C       1.03812269       1.84688675      -0.11712011        6 
C       2.41695614       1.89584987       0.57795889        6 
C       2.90520565       0.43353096       0.36770473        6 
C       1.69639311      -0.20338881      -0.37435737        6 
O       1.23649364       0.90317529      -1.17052391        8 
H       0.07302035       1.49072092       1.82876877        1 
H       1.00881256      -0.61703266       1.65985902        1 
H      -1.73186554      -3.48563457      -0.61108768        1 
H      -3.67836373       0.55163011      -0.75297488        1 
H       3.07038592       2.60977605       0.07457731        1 
H       2.34432316       2.18709170       1.62769368        1 
H       3.78416800       0.40183834      -0.27849350        1 
H       3.14944935      -0.08508911       1.29658382        1 
H      -0.37509062      -4.55879784      -0.14619027        1 
H      -1.44393929      -3.84973462       1.10615141        1 
H      -2.99675948       0.81626945      -2.38997585        1 
H      -3.30665504       2.20533467      -1.30093905        1 
H       0.68395639       2.79010292      -0.52791788        1 
C       2.03959940      -1.36973768      -1.27305554        6 
H       2.82501262      -1.05890602      -1.96619925        1 
H       2.39736827      -2.21895806      -0.68965928        1 
H       1.17301161      -1.69297566      -1.84858791        1 
