32
Lattice="0.0 0.0 0.0 0.0 0.0 0.0 0.0 0.0 0.0" Properties=species:S:1:pos:R:3:Z:I:1 pbc="F F F"
C      -0.38320641       0.87844308       0.70741303        6 
C       0.79593725      -0.15781493       0.78706718        6 
C      -1.71399778       0.36220593       0.17488506        6 
C       0.37165891      -1.61806180       0.72434217        6 
O      -2.48545344       1.39066310      -0.24000761        8 
O      -2.09652641      -0.77999242       0.17889238        8 
O       0.32613077      -2.11516604      -0.52139875        8 
O       0.09019969      -2.25095316       1.71324533        8 
C      -0.23758340      -3.43243241      -0.65155205        6 
C      -3.80925901       1.04453083      -0.69117143        6 
C       0.24798491       1.94636444      -0.22807313        6 
C       1.39093671       2.67988194       0.50369421        6 
C       2.52149708       1.61703352       0.43116030        6 
C       1.80169030       0.43172682      -0.26920266        6 
O       0.92995065       1.12867787      -1.18628675        8 
H      -0.60626885       1.28788534       1.69625490        1 
H       1.23953797      -0.07879300       1.78016937        1 
H      -1.27470047      -3.41965333      -0.31449257        1 
H      -3.75450732       0.37738700      -1.55240944        1 
H       1.66175952       3.58928578      -0.03422592        1 
H       1.11861032       2.96031827       1.52350240        1 
H       3.34576477       1.95937084      -0.19678151        1 
H       2.92923390       1.34316557       1.40594844        1 
H      -0.17985750      -3.66778868      -1.71231486        1 
H       0.33151467      -4.15469339      -0.06466356        1 
H      -4.27584205       1.98773131      -0.96634050        1 
H      -4.36879212       0.55623420       0.10806772        1 
H      -0.47576181       2.58144651      -0.72852238        1 
C       2.72668952      -0.51330160      -1.00301326        6 
H       3.40065498       0.06010722      -1.64342805        1 
H       3.33093384      -1.07671307      -0.28655884        1 
H       2.16718128      -1.21774284      -1.61379183        1 
