32
Lattice="0.0 0.0 0.0 0.0 0.0 0.0 0.0 0.0 0.0" Properties=species:S:1:pos:R:3:Z:I:1 pbc="F F F"
C      -0.53887544       0.97717928       0.55419333        6 
C       0.58483751      -0.10882850       0.65178758        6 
C      -1.78862620       0.57873764      -0.21951710        6 
C       0.15133970      -1.52605457       0.31865435        6 
O      -2.84258212       0.46393756       0.61960241        8 
O      -1.86415630       0.43483267      -1.41192352        8 
O       1.20108622      -2.37339252       0.35560974        8 
O      -0.98208784      -1.89850040       0.14356125        8 
C       0.90385759      -3.76037158       0.10504742        6 
C      -4.06061806      -0.01104221       0.01934298        6 
C       0.21973068       2.09338836      -0.21181746        6 
C       1.27098388       2.74076437       0.71663681        6 
C       2.37839872       1.64722398       0.71543240        6 
C       1.74664243       0.55639003      -0.19489936        6 
O       1.01495466       1.35293286      -1.13808063        8 
H      -0.85037326       1.29886600       1.54718977        1 
H       0.92064321      -0.18519405       1.68981956        1 
H       0.44579353      -3.87985639      -0.87767525        1 
H      -4.39321009       0.66781088      -0.76756868        1 
H       1.63418802       3.67520826       0.28655543        1 
H       0.87470394       2.95854201       1.71080392        1 
H       3.29692431       2.01533270       0.25510802        1 
H       2.62715487       1.27474417       1.71121166        1 
H       1.86263547      -4.27254513       0.14636689        1 
H       0.22651839      -4.14923569       0.86688435        1 
H      -4.78861024      -0.04798313       0.82720939        1 
H      -3.90103054      -1.00469184      -0.40212440        1 
H      -0.42532623       2.78233974      -0.75178280        1 
C       2.73733979      -0.32399358      -0.92316332        6 
H       3.43034960       0.31255083      -1.47831980        1 
H       3.30209788      -0.93650737      -0.21997086        1 
H       2.23478833      -0.98550230      -1.62928536        1 
