32
Lattice="0.0 0.0 0.0 0.0 0.0 0.0 0.0 0.0 0.0" Properties=species:S:1:pos:R:3:Z:I:1 pbc="F F F"
C       0.09256772       1.14089502       0.38433530        6 
C       0.55328934      -0.29065124       0.82972114        6 
C      -1.33793729       1.29449449      -0.09430961        6 
C      -0.31122972      -1.48252458       0.46858149        6 
O      -2.19349598       0.98632016       0.90748223        8 
O      -1.68870984       1.69452463      -1.17426452        8 
O      -1.12817579      -1.25056943      -0.57009558        8 
O      -0.19332439      -2.56442367       0.99530716        8 
C      -1.91339037      -2.35962214      -1.04029408        6 
C      -3.59247328       1.03615685       0.57936001        6 
C       1.16027855       1.51342559      -0.67450358        6 
C       2.42580944       1.98698615       0.06137768        6 
C       2.90626569       0.64555821       0.68444890        6 
C       1.92636633      -0.38274907       0.04513721        6 
O       1.57241859       0.24362579      -1.19831543        8 
H       0.16620357       1.80275551       1.25226495        1 
H       0.71767584      -0.35113212       1.90454728        1 
H      -2.58628065      -2.70874995      -0.25507757        1 
H      -3.87624849       2.03696859       0.25064710        1 
H       3.15313132       2.37310464      -0.65450212        1 
H       2.22602961       2.76632139       0.79925353        1 
H       3.93132973       0.41140598       0.39337706        1 
H       2.85904062       0.63253624       1.77530547        1 
H      -2.47437004      -1.97375727      -1.88834721        1 
H      -1.26481536      -3.18023756      -1.34957141        1 
H      -4.11628411       0.77006122       1.49495074        1 
H      -3.81866414       0.32060239      -0.21339023        1 
H       0.79040433       2.14145816      -1.47977072        1 
C       2.50598483      -1.75850993      -0.19332151        6 
H       3.45126739      -1.66402181      -0.73193081        1 
H       2.68631938      -2.26789908       0.75511529        1 
H       1.83209546      -2.37769913      -0.78615367        1 
