32
Lattice="0.0 0.0 0.0 0.0 0.0 0.0 0.0 0.0 0.0" Properties=species:S:1:pos:R:3:Z:I:1 pbc="F F F"
C      -0.81152862      -0.50975000      -0.48896249        6 
C       0.64880806      -0.03088880      -0.67542403        6 
C      -1.88589708       0.54539106      -0.33739501        6 
C       1.01349524       1.24602090       0.06345759        6 
O      -3.04322164      -0.02913519       0.06625601        8 
O      -1.77274424       1.72045575      -0.57165056        8 
O       2.04629509       1.85652047      -0.56929529        8 
O       0.50090868       1.67418329       1.06251034        8 
C       2.51428121       3.07505643       0.03526756        6 
C      -4.16678235       0.85868182       0.22166781        6 
C      -0.67244021      -1.65425180       0.56497470        6 
C      -0.31687742      -2.93624721      -0.20823870        6 
C       1.09586294      -2.54704581      -0.73414187        6 
C       1.38830294      -1.22845608       0.04752543        6 
O       0.56525652      -1.36590685       1.22071781        8 
H      -1.10606118      -0.98406640      -1.43410312        1 
H       0.94145435       0.06403993      -1.71925493        1 
H       2.88212629       2.88567986       1.04543366        1 
H      -3.94496353       1.62183041       0.96873761        1 
H      -0.26333006      -3.78279339       0.47831624        1 
H      -1.03000231      -3.17768417      -0.99904877        1 
H       1.84223585      -3.30321924      -0.48547564        1 
H       1.12557255      -2.39489401      -1.81533111        1 
H       3.31983614       3.42710183      -0.60557306        1 
H       1.70804094       3.80865042       0.08022520        1 
H      -4.99062695       0.22825836       0.54919095        1 
H      -4.40606143       1.34200182      -0.72688911        1 
H      -1.47931385      -1.72107809       1.28825537        1 
C       2.83537009      -1.01801683       0.43307461        6 
H       3.20787098      -1.90471986       0.95049057        1 
H       3.44799558      -0.84608483      -0.45487315        1 
H       2.94691071      -0.16207192       1.10031259        1 
