32
Lattice="0.0 0.0 0.0 0.0 0.0 0.0 0.0 0.0 0.0" Properties=species:S:1:pos:R:3:Z:I:1 pbc="F F F"
C       0.16405777       1.04288658       0.82305851        6 
C       0.71683230      -0.43075443       0.81111361        6 
C      -1.31711898       1.20647778       0.51582803        6 
C      -0.26815176      -1.57413720       0.69119923        6 
O      -1.57255123       1.39750385      -0.78643752        8 
O      -2.16507654       1.25382324       1.37741744        8 
O      -1.16914111      -1.40055501      -0.29202215        8 
O      -0.22512756      -2.56127676       1.38679897        8 
C      -2.13966387      -2.45041214      -0.45923242        6 
C      -2.95542572       1.53758216      -1.14630442        6 
C       1.10210689       1.69132425      -0.23019437        6 
C       2.52816634       1.81182286       0.35481703        6 
C       3.02923935       0.34417393       0.22907356        6 
C       1.77750036      -0.36073551      -0.35456763        6 
O       1.23898020       0.65723073      -1.21103478        8 
H       0.29372317       1.47154683       1.81652308        1 
H       1.22884778      -0.63022233       1.75120865        1 
H      -2.73412440      -2.56378432       0.44832421        1 
H      -3.51027271       0.63942378      -0.86953427        1 
H       3.12981381       2.49222875      -0.24929268        1 
H       2.52801830       2.18383366       1.38165221        1 
H       3.85355502       0.26585771      -0.48211402        1 
H       3.35471720      -0.09007885       1.17589466        1 
H      -2.76473774      -2.13502152      -1.29189240        1 
H      -1.64415392      -3.39507172      -0.68744659        1 
H      -2.96055120       1.67263124      -2.22572826        1 
H      -3.40049034       2.40009073      -0.64740997        1 
H       0.70620281       2.58823375      -0.69869064        1 
C       2.03522464      -1.63696732      -1.12249456        6 
H       2.78211113      -1.45667693      -1.89832029        1 
H       2.40883127      -2.41705871      -0.45456805        1 
H       1.12181708      -1.99390124      -1.60125301        1 
