32
Lattice="0.0 0.0 0.0 0.0 0.0 0.0 0.0 0.0 0.0" Properties=species:S:1:pos:R:3:Z:I:1 pbc="F F F"
C       0.32459534       0.88889414       0.78703434        6 
C       0.50585202      -0.66302800       0.60611240        6 
C      -0.96083035       1.53439200       0.31363798        6 
C      -0.74021735      -1.38074633       0.11252650        6 
O      -1.39845862       1.02470390      -0.84890516        8 
O      -1.49700781       2.45208630       0.88900335        8 
O      -1.69847161      -1.28542486       1.06888947        8 
O      -0.90406315      -1.97034022      -0.92258797        8 
C      -2.97358994      -1.86590507       0.74453951        6 
C      -2.59810428       1.59634898      -1.39832315        6 
C       1.54032766       1.41253439      -0.04350501        6 
C       2.82793402       1.18456521       0.77306228        6 
C       2.99268358      -0.35290089       0.62021279        6 
C       1.78687366      -0.72730862      -0.29309841        6 
O       1.64983418       0.46235344      -1.10054987        8 
H       0.41766361       1.17638109       1.83275918        1 
H       0.71162783      -1.09862631       1.58668636        1 
H      -2.87315661      -2.93796389       0.56890929        1 
H      -3.41990726       1.51408716      -0.68505449        1 
H       3.66157675       1.72210741       0.31854354        1 
H       2.73274225       1.51728844       1.80839150        1 
H       3.92410223      -0.60357904       0.11020518        1 
H       2.97642865      -0.89006346       1.57069686        1 
H      -3.60742151      -1.67647134       1.60809509        1 
H      -3.38878358      -1.39459605      -0.14800548        1 
H      -2.80484992       1.01868616      -2.29633326        1 
H      -2.44067049       2.64750715      -1.64430035        1 
H       1.40962972       2.41284881      -0.45184403        1 
C       2.01552629      -1.94694778      -1.15871143        6 
H       2.97107293      -1.84578331      -1.67866659        1 
H       2.05595257      -2.84700155      -0.53856742        1 
H       1.21630681      -2.06950467      -1.88462050        1 
