32
Lattice="0.0 0.0 0.0 0.0 0.0 0.0 0.0 0.0 0.0" Properties=species:S:1:pos:R:3:Z:I:1 pbc="F F F"
C      -0.16556504       1.13210970       0.38421413        6 
C       0.58070466      -0.20040033       0.78080523        6 
C      -1.51334283       0.92048748      -0.27532296        6 
C      -0.32074320      -1.41504671       0.58502819        6 
O      -2.50703132       1.41862175       0.48563872        8 
O      -1.68713071       0.41314908      -1.35652256        8 
O       0.19097089      -2.39361857      -0.16838637        8 
O      -1.41597863      -1.47595639       1.09549398        8 
C      -0.67069015      -3.52553345      -0.40662768        6 
C      -3.84201133       1.19563914      -0.00555176        6 
C       0.86367814       1.75701625      -0.60220732        6 
C       2.00307915       2.38704962       0.22008179        6 
C       2.71884729       1.10695580       0.73133721        6 
C       1.93007517      -0.03139364       0.00389230        6 
O       1.49381915       0.62392337      -1.20233096        8 
H      -0.31676644       1.76373007       1.25786614        1 
H       0.76577131      -0.18953715       1.85800181        1 
H      -1.57070905      -3.20300439      -0.93052797        1 
H      -3.97258474       1.65375120      -0.98715688        1 
H       2.65420380       2.97261797      -0.43101474        1 
H       1.64320140       3.03808884       1.01937107        1 
H       3.76496229       1.08495223       0.42339487        1 
H       2.68863142       1.00113263       1.81780600        1 
H      -0.08729385      -4.20358035      -1.02539699        1 
H      -0.94654220      -4.00048917       0.53557348        1 
H      -4.50106178       1.65797061       0.72586440        1 
H      -4.03647584       0.12449757      -0.07508260        1 
H       0.42434715       2.38270699      -1.37563267        1 
C       2.78129477      -1.24216973      -0.31915511        6 
H       3.71755028      -0.90932406      -0.77248248        1 
H       3.02018475      -1.79683934       0.59256637        1 
H       2.27240847      -1.91225641      -1.00546264        1 
