32
Lattice="0.0 0.0 0.0 0.0 0.0 0.0 0.0 0.0 0.0" Properties=species:S:1:pos:R:3:Z:I:1 pbc="F F F"
C      -0.42138110       0.71946460       0.78440860        6 
C       0.73578132      -0.30641790       0.65687633        6 
C      -1.68025903       0.57982869      -0.06134133        6 
C       0.57153973      -1.81349492       0.56828537        6 
O      -2.56569676       1.53017468       0.35285568        8 
O      -1.92047879      -0.19103485      -0.94804949        8 
O      -0.61234267      -2.25080216       0.13953248        8 
O       1.46183752      -2.55269722       0.93246941        8 
C      -0.78291703      -3.67847753       0.07184205        6 
C      -3.80653728       1.58927429      -0.37131844        6 
C       0.32753935       1.95325392       0.16954325        6 
C       1.61077083       2.31379412       0.96227928        6 
C       2.63169101       1.28876532       0.38352849        6 
C       1.68488526       0.37486943      -0.42466350        6 
O       0.82857732       1.36304497      -1.03426706        8 
H      -0.71816499       0.88258152       1.82077919        1 
H       1.27440080      -0.23450222       1.60365876        1 
H      -0.69369747      -4.12193062       1.06496072        1 
H      -3.62478627       1.79648086      -1.42729862        1 
H       1.90951019       3.34261444       0.75870356        1 
H       1.46706623       2.21617875       2.04086266        1 
H       3.33682434       1.77138699      -0.29611051        1 
H       3.19504425       0.74969783       1.14752033        1 
H      -1.78284179      -3.82504845      -0.32985352        1 
H      -0.03434101      -4.12049193      -0.58695737        1 
H      -4.37200632       2.39870739       0.08581661        1 
H      -4.34838970       0.64608160      -0.28147747        1 
H      -0.32351695       2.79066136      -0.06778361        1 
C       2.30004547      -0.52179100      -1.46935738        6 
H       2.88860644       0.07580339      -2.16904864        1 
H       2.95153979      -1.26011455      -0.99873613        1 
H       1.52241357      -1.04694768      -2.02881950        1 
