32
Lattice="0.0 0.0 0.0 0.0 0.0 0.0 0.0 0.0 0.0" Properties=species:S:1:pos:R:3:Z:I:1 pbc="F F F"
C       0.42429895       1.11328948       0.69495615        6 
C       0.53208805      -0.45077256       0.79656637        6 
C      -0.83661999       1.75798464       0.14685605        6 
C      -0.81936540      -1.14778965       0.85883004        6 
O      -1.64304573       0.91250626      -0.51066995        8 
O      -1.04235048       2.94561223       0.23512716        8 
O      -1.12307869      -1.90957470      -0.20134723        8 
O      -1.53452589      -1.04369768       1.82832208        8 
C      -2.41397345      -2.54259285      -0.16923350        6 
C      -2.82560693       1.48020259      -1.10265233        6 
C       1.57831347       1.40491536      -0.31139493        6 
C       2.93907309       1.13994644       0.36369191        6 
C       2.98588370      -0.41179497       0.33183631        6 
C       1.61248665      -0.76598567      -0.30637268        6 
O       1.44495378       0.32609125      -1.23982002        8 
H       0.60552718       1.59406468       1.65541999        1 
H       0.95683048      -0.67971310       1.77622298        1 
H      -3.20032673      -1.79045592      -0.09022712        1 
H      -3.45863317       1.92369943      -0.33300113        1 
H       3.74562346       1.57755641      -0.22617654        1 
H       2.99250780       1.55872076       1.37054078        1 
H       3.78760910      -0.76905003      -0.31659953        1 
H       3.12154995      -0.86497097       1.31583850        1 
H      -2.49264438      -3.08552909      -1.10876463        1 
H      -2.48703220      -3.22657134       0.67763167        1 
H      -3.33282759       0.64875088      -1.58719603        1 
H      -2.55477531       2.24245356      -1.83427381        1 
H       1.48405587       2.35862770      -0.82536130        1 
C       1.59217769      -2.09281115      -1.03258295        6 
H       2.46395538      -2.15613678      -1.68798916        1 
H       1.63779229      -2.91986639      -0.31910337        1 
H       0.68904199      -2.20245268      -1.62657843        1 
