32
Lattice="0.0 0.0 0.0 0.0 0.0 0.0 0.0 0.0 0.0" Properties=species:S:1:pos:R:3:Z:I:1 pbc="F F F"
C       0.29843253       1.02394661       0.65564691        6 
C       0.47447899      -0.54225739       0.58693381        6 
C      -0.88380105       1.64835363      -0.07897459        6 
C      -0.72491895      -1.30360899       0.05768347        6 
O      -2.03701895       1.00281006       0.18058814        8 
O      -0.82228860       2.64690927      -0.75122012        8 
O      -1.50756611      -1.69818119       1.08730584        8 
O      -0.94408064      -1.60309495      -1.08973088        8 
C      -2.72026985      -2.37771501       0.72549807        6 
C      -3.21397457       1.51132388      -0.47665874        6 
C       1.62891131       1.48577950       0.01993114        6 
C       2.80426373       1.18235179       0.97308565        6 
C       2.96129199      -0.35066148       0.77239918        6 
C       1.81365400      -0.66128710      -0.22838060        6 
O       1.80020333       0.53154329      -1.03505745        8 
H       0.20112591       1.34318608       1.69714711        1 
H       0.62742554      -0.91150001       1.60119402        1 
H      -2.49905756      -3.31063288       0.20426058        1 
H      -3.37412527       2.55826238      -0.21705151        1 
H       3.69832518       1.71959210       0.65447654        1 
H       2.58993503       1.46815935       2.00540060        1 
H       3.91829396      -0.59196241       0.30636120        1 
H       2.88128382      -0.92715024       1.69612885        1 
H      -3.23448275      -2.57639041       1.66346029        1 
H      -3.33021175      -1.74414777       0.07938244        1 
H      -4.03506441       0.89610052      -0.11536662        1 
H      -3.10899521       1.41560575      -1.55803538        1 
H       1.58772475       2.48880882      -0.39341606        1 
C       2.02823816      -1.89351203      -1.07882510        6 
H       3.00594974      -1.83309576      -1.56212117        1 
H       2.01071388      -2.79114167      -0.45364602        1 
H       1.25595268      -1.98450161      -1.83929848        1 
