32
Lattice="0.0 0.0 0.0 0.0 0.0 0.0 0.0 0.0 0.0" Properties=species:S:1:pos:R:3:Z:I:1 pbc="F F F"
C       0.32405212       0.89141402       0.79172739        6 
C       0.48619233      -0.65892356       0.59399169        6 
C      -0.90269871       1.59776197       0.24888373        6 
C      -0.77358205      -1.38089756       0.14545523        6 
O      -1.46734917       0.96255018      -0.78747841        8 
O      -1.27918165       2.66791266       0.66680317        8 
O      -1.69272806      -1.30071463       1.14126479        8 
O      -0.97353553      -1.96821008      -0.88461288        8 
C      -2.97859698      -1.87738744       0.85665489        6 
C      -2.59903885       1.60000214      -1.40565118        6 
C       1.58144783       1.40075686       0.01897082        6 
C       2.84772041       1.07768300       0.83840723        6 
C       2.97926574      -0.44859060       0.57957592        6 
C       1.75150583      -0.73362758      -0.33185359        6 
O       1.65798813       0.49836987      -1.08325157        8 
H       0.37453015       1.16882491       1.84351222        1 
H       0.71831980      -1.09536408       1.56835803        1 
H      -2.88326182      -2.94270251       0.64200474        1 
H      -3.40633604       1.72513703      -0.68208384        1 
H       3.70318182       1.62567712       0.44084467        1 
H       2.73922993       1.33796331       1.89314266        1 
H       3.89551835      -0.68151439       0.03456850        1 
H       2.96860593      -1.04870506       1.49150662        1 
H      -3.57432778      -1.71867398       1.75302409        1 
H      -3.43448998      -1.37882202      -0.00073804        1 
H      -2.89868190       0.93145349      -2.20939780        1 
H      -2.31555184       2.57619661      -1.80105769        1 
H       1.49957106       2.42497672      -0.33907792        1 
C       1.92055878      -1.91634607      -1.25946746        6 
H       2.86961970      -1.82046328      -1.79232358        1 
H       1.94062103      -2.84694246      -0.68562754        1 
H       1.10475748      -1.97725583      -1.97492759        1 
