32
Lattice="0.0 0.0 0.0 0.0 0.0 0.0 0.0 0.0 0.0" Properties=species:S:1:pos:R:3:Z:I:1 pbc="F F F"
C      -0.22950495       0.81317574      -0.79774750        6 
C      -0.50679280      -0.73167687      -0.55240960        6 
C       1.14581350       1.33999555      -0.41168871        6 
C       0.65920404      -1.54281620       0.00226732        6 
O       1.15970005       1.86281518       0.83118320        8 
O       2.12597884       1.27403784      -1.11136699        8 
O       1.68644860      -1.48284978      -0.86417864        8 
O       0.66832228      -2.23930358       0.98710574        8 
C       2.88209702      -2.19600531      -0.50596778        6 
C       2.43016003       2.34937089       1.29930801        6 
C      -1.41932238       1.44019807      -0.02403132        6 
C      -2.70015550       1.27284353      -0.86447621        6 
C      -2.96447244      -0.24661188      -0.68402160        6 
C      -1.82389164      -0.66768826       0.29345605        6 
O      -1.62705927       0.53471185       1.06307503        8 
H      -0.30354369       1.01405106      -1.86735670        1 
H      -0.70545002      -1.19335208      -1.52289327        1 
H       2.68804804      -3.26897278      -0.45818711        1 
H       3.16642223       1.54415407       1.30552730        1 
H      -3.50862449       1.86981123      -0.43967700        1 
H      -2.56603720       1.57577948      -1.90502846        1 
H      -3.93219034      -0.42936335      -0.21456365        1 
H      -2.93612548      -0.80853393      -1.61996226        1 
H       3.59786213      -1.96605648      -1.29141298        1 
H       3.25290717      -1.85432270       0.46149176        1 
H       2.24688182       2.70903522       2.30915289        1 
H       2.78901023       3.15750856       0.65986377        1 
H      -1.23020735       2.43774490       0.36186153        1 
C      -2.18514840      -1.83030091       1.19379967        6 
H      -3.15694558      -1.63496003       1.65318599        1 
H      -2.25755189      -2.75335319       0.61241375        1 
H      -1.43896558      -1.97755225       1.96919145        1 
