32
Lattice="0.0 0.0 0.0 0.0 0.0 0.0 0.0 0.0 0.0" Properties=species:S:1:pos:R:3:Z:I:1 pbc="F F F"
C      -0.83415042      -0.50333268      -0.68155942        6 
C       0.63585641      -0.00863150      -0.58396268        6 
C      -1.89575409       0.18264373       0.16556329        6 
C       0.92188767       1.44361412      -0.25710300        6 
O      -3.04201713       0.28787395      -0.56275456        8 
O      -1.80539356       0.54145875       1.30595914        8 
O       2.10827325       1.78542350      -0.83337179        8 
O       0.28454848       2.20905532       0.41491542        8 
C       2.57573515       3.11715390      -0.55514663        6 
C      -4.16553013       0.86224698       0.12911290        6 
C      -0.64069027      -1.93617664      -0.08457621        6 
C       0.29217869      -2.78486149      -0.98673160        6 
C       1.69431926      -2.27109038      -0.54470782        6 
C       1.29699765      -1.09202829       0.37370698        6 
O       0.16580696      -1.65448758       1.05857252        8 
H      -1.18078262      -0.53123378      -1.71340518        1 
H       1.08221703      -0.14386572      -1.56967466        1 
H       2.71631822       3.25625289       0.51804953        1 
H      -4.42688080       0.26111834       1.00181190        1 
H       0.16718809      -3.84744739      -0.77523389        1 
H       0.09058653      -2.62952493      -2.04911191        1 
H       2.22292799      -3.02417546       0.04328840        1 
H       2.33529768      -1.97067312      -1.37553909        1 
H       3.52347225       3.20863740      -1.08151656        1 
H       1.86118108       3.85683171      -0.91967782        1 
H      -4.98058103       0.86552551      -0.59173826        1 
H      -3.93351016       1.87796063       0.45309352        1 
H      -1.56398263      -2.42299037       0.22301827        1 
C       2.32874631      -0.60393869       1.36114055        6 
H       2.64809395      -1.43068728       1.99902355        1 
H       3.20098187      -0.20863068       0.83631074        1 
H       1.90906932       0.18048879       1.99409626        1 
