32
Lattice="0.0 0.0 0.0 0.0 0.0 0.0 0.0 0.0 0.0" Properties=species:S:1:pos:R:3:Z:I:1 pbc="F F F"
C      -0.44155415       0.88850710       0.40654816        6 
C       0.67380624      -0.11045730       0.86963040        6 
C      -1.79969165       0.34274324       0.01567173        6 
C       0.39075726      -1.59354481       0.67201278        6 
O      -2.76189828       1.19338631       0.45504486        8 
O      -2.04918760      -0.64362466      -0.62878443        8 
O       0.39241840      -1.97156211      -0.60808633        8 
O       0.25367913      -2.35751077       1.60178813        8 
C       0.02413410      -3.33458279      -0.87443648        6 
C      -4.11394514       0.85284650       0.09383325        6 
C       0.28382282       1.64718923      -0.76138112        6 
C       1.16700146       2.73592298      -0.12564152        6 
C       2.24753941       1.84595576       0.55381060        6 
C       1.88521837       0.42315405       0.02438706        6 
O       1.24755618       0.71241915      -1.23496880        8 
H      -0.63446147       1.59200716       1.21529977        1 
H       0.85282723       0.00128386       1.93807880        1 
H      -0.98927299      -3.52114628      -0.51720004        1 
H      -4.22546820       0.82848532      -0.99142704        1 
H       1.60489550       3.35816312      -0.90789061        1 
H       0.62766873       3.38355824       0.56774016        1 
H       3.25339527       2.12083528       0.23277767        1 
H       2.22150153       1.89424927       1.64450607        1 
H       0.06999948      -3.43681276      -1.95620781        1 
H       0.71649640      -4.02494850      -0.38956612        1 
H      -4.73456615       1.63486264       0.52563967        1 
H      -4.38321455      -0.12192232       0.50303935        1 
H      -0.36219332       1.96259409      -1.57799417        1 
C       3.06743995      -0.50417618      -0.15118335        6 
H       3.83477297      -0.01662019      -0.75640200        1 
H       3.50103500      -0.74639535       0.82307009        1 
H       2.77160884      -1.42897915      -0.64429300        1 
