32
Lattice="0.0 0.0 0.0 0.0 0.0 0.0 0.0 0.0 0.0" Properties=species:S:1:pos:R:3:Z:I:1 pbc="F F F"
C       0.07718376       1.01854707       0.38249006        6 
C       0.57214912      -0.44163914       0.71718282        6 
C      -1.33344350       1.22215248      -0.13394687        6 
C      -0.25865045      -1.63145587       0.24204657        6 
O      -2.20511041       1.28463901       0.89749815        8 
O      -1.64678540       1.40607513      -1.28307417        8 
O      -1.53602561      -1.31658266      -0.02903911        8 
O       0.16722106      -2.75655711       0.14521807        8 
C      -2.37202907      -2.38558206      -0.51070325        6 
C      -3.58772887       1.43924183       0.54112852        6 
C       1.16736549       1.50115201      -0.61548248        6 
C       2.36346265       2.00805831       0.20352964        6 
C       2.84755138       0.66881304       0.82302925        6 
C       1.99806947      -0.39043228       0.04625034        6 
O       1.67820121       0.29034575      -1.18256908        8 
H       0.12824150       1.59960618       1.30544819        1 
H       0.65789951      -0.57197957       1.79923299        1 
H      -2.43403630      -3.18346130       0.23029470        1 
H      -3.74492852       2.37319004      -0.00101495        1 
H       3.11758608       2.43369190      -0.46039767        1 
H       2.08991200       2.76212203       0.94464498        1 
H       3.90982292       0.50073884       0.64292281        1 
H       2.68256432       0.61022296       1.90124528        1 
H      -3.34784231      -1.93538606      -0.67695121        1 
H      -1.97169330      -2.78530359      -1.44288664        1 
H      -4.13321592       1.44665030       1.48246677        1 
H      -3.91376040       0.60554390      -0.08308454        1 
H       0.79434982       2.14662335      -1.40552152        1 
C       2.74987799      -1.67201894      -0.24302681        6 
H       3.71889334      -1.41448810      -0.67739430        1 
H       2.91763274      -2.23754600       0.67601730        1 
H       2.21003985      -2.31117364      -0.93657269        1 
