32
Lattice="0.0 0.0 0.0 0.0 0.0 0.0 0.0 0.0 0.0" Properties=species:S:1:pos:R:3:Z:I:1 pbc="F F F"
C      -0.25348152       0.84528083      -0.96155440        6 
C      -0.43898969      -0.64585635      -0.59242543        6 
C       0.81756815       1.68738079      -0.27844438        6 
C       0.71627685      -1.62240289      -0.47342036        6 
O       1.33691167       1.13150705       0.82149688        8 
O       1.05452896       2.82162119      -0.62959123        8 
O       1.93352891      -1.06889981      -0.58328805        8 
O       0.53866869      -2.82024545      -0.46650322        8 
C       3.04162121      -1.98572251      -0.65141741        6 
C       2.22355201       1.95897597       1.59247722        6 
C      -1.59916150       1.37835308      -0.35869337        6 
C      -2.83501266       0.70163682      -1.00811959        6 
C      -2.89834297      -0.64606303      -0.22749180        6 
C      -1.55622461      -0.59746210       0.53492274        6 
O      -1.54662928       0.78787495       0.94444975        8 
H      -0.17159620       1.01253263      -2.03500073        1 
H      -0.93423567      -1.08809220      -1.46294997        1 
H       2.93890404      -2.64387804      -1.51562809        1 
H       3.06894171       2.28503459       0.98476612        1 
H      -3.72764897       1.30621977      -0.84359593        1 
H      -2.71618512       0.57099243      -2.08617794        1 
H      -3.72336085      -0.65090046       0.48784266        1 
H      -2.99152853      -1.52324760      -0.87046162        1 
H       3.92626734      -1.36002624      -0.74649669        1 
H       3.09282700      -2.59020022       0.25501477        1 
H       2.56046384       1.33242241       2.41538393        1 
H       1.69224537       2.83434966       1.96941198        1 
H      -1.64478553       2.46169004      -0.28096083        1 
C      -1.39450194      -1.50820944       1.72580425        6 
H      -2.19840881      -1.32096159       2.44115747        1 
H      -1.42916585      -2.55387669       1.41597900        1 
H      -0.43833216      -1.32587573       2.22143129        1 
