32
Lattice="0.0 0.0 0.0 0.0 0.0 0.0 0.0 0.0 0.0" Properties=species:S:1:pos:R:3:Z:I:1 pbc="F F F"
C      -0.56757451       0.75389559       0.46901294        6 
C       0.72280412      -0.02279143       0.85557576        6 
C      -1.85860710      -0.01328580       0.27213911        6 
C       0.78813813      -1.51476760       0.56786312        6 
O      -2.87882971       0.87559739       0.17040865        8 
O      -2.01933372      -1.20373654       0.19206349        8 
O       0.49912587      -1.82547978      -0.70117108        8 
O       1.18767304      -2.31540164       1.38278837        8 
C       0.48071969      -3.22461344      -1.02447340        6 
C      -4.18581050       0.31402026      -0.05352853        6 
C      -0.08000908       1.63773442      -0.73196539        6 
C       0.60310877       2.88123519      -0.13226558        6 
C       1.86188299       2.21886484       0.50029596        6 
C       1.76915333       0.75550241      -0.03042326        6 
O       1.03188253       0.91604572      -1.25781831        8 
H      -0.80645990       1.43268143       1.29246704        1 
H       0.94546857       0.07913243       1.91614358        1 
H      -0.30455176      -3.72510589      -0.45563191        1 
H      -4.19999055      -0.26304020      -0.97932341        1 
H       0.87852675       3.57298314      -0.93011383        1 
H      -0.02425943       3.41411219       0.58470853        1 
H       2.78263016       2.68643010       0.14848260        1 
H       1.86507317       2.25813950       1.59172404        1 
H       0.26664765      -3.27088235      -2.09002559        1 
H       1.44362901      -3.68732212      -0.80270687        1 
H      -4.85904587       1.16567818      -0.12226632        1 
H      -4.47009349      -0.33366448       0.77721088        1 
H      -0.82074962       1.81250958      -1.50783912        1 
C       3.09629729       0.07378323      -0.27345433        6 
H       3.71843526       0.69463443      -0.92155143        1 
H       3.62095698      -0.07744388       0.67313235        1 
H       2.96070424      -0.89603833      -0.75343845        1 
