32
Lattice="0.0 0.0 0.0 0.0 0.0 0.0 0.0 0.0 0.0" Properties=species:S:1:pos:R:3:Z:I:1 pbc="F F F"
C       0.31465730       0.88331366       0.78534193        6 
C       0.53339706      -0.66880404       0.61979842        6 
C      -1.03668080       1.43326260       0.37959901        6 
C      -0.68772074      -1.41527498       0.10238820        6 
O      -1.33060902       1.14666527      -0.90320977        8 
O      -1.76091708       2.06790865       1.10750591        8 
O      -1.72497420      -1.18903769       0.94362025        8 
O      -0.76452852      -2.14732883      -0.84936770        8 
C      -2.97611324      -1.80653095       0.59529299        6 
C      -2.60101032       1.61238912      -1.38937052        6 
C       1.48140532       1.43127750      -0.09368127        6 
C       2.79036031       1.30740546       0.70798071        6 
C       3.00268706      -0.23165860       0.65909326        6 
C       1.82884583      -0.70326450      -0.25572094        6 
O       1.63528552       0.44266653      -1.11128678        8 
H       0.43836081       1.17861915       1.82574523        1 
H       0.72624825      -1.10102050       1.60538250        1 
H      -2.88453077      -2.89355230       0.61476089        1 
H      -3.41147723       1.22721755      -0.76839095        1 
H       3.59468087       1.83660137       0.19461921        1 
H       2.70734574       1.70881862       1.71969317        1 
H       3.95520443      -0.48879778       0.19376476        1 
H       2.97412532      -0.70298322       1.64366966        1 
H      -3.68511398      -1.46651943       1.34680961        1 
H      -3.29041954      -1.49221551      -0.40132495        1 
H      -2.67754719       1.23132568      -2.40517257        1 
H      -2.63566101       2.70304676      -1.38415341        1 
H       1.29012635       2.40156444      -0.54737312        1 
C       2.13651969      -1.94202090      -1.06886304        6 
H       3.09491464      -1.80918023      -1.57623125        1 
H       2.21176423      -2.81473424      -0.41407209        1 
H       1.35903753      -2.13527925      -1.80254756        1 
