32
Lattice="0.0 0.0 0.0 0.0 0.0 0.0 0.0 0.0 0.0" Properties=species:S:1:pos:R:3:Z:I:1 pbc="F F F"
C       0.05407650       0.99221132       0.49945565        6 
C       0.62120798      -0.46558172       0.67170652        6 
C      -1.26627369       1.14883066      -0.23473817        6 
C      -0.25943301      -1.65676912       0.32319576        6 
O      -2.25159668       1.48136879       0.63188353        8 
O      -1.42756199       1.07748506      -1.42629910        8 
O      -1.56805181      -1.34734555       0.29636286        8 
O       0.14917553      -2.78415538       0.18753496        8 
C      -2.47668238      -2.42707890       0.01239872        6 
C      -3.55946522       1.63644470       0.05762876        6 
C       1.20343427       1.65152955      -0.31201662        6 
C       2.40420456       1.90611806       0.62140621        6 
C       2.95690369       0.46240779       0.78339735        6 
C       1.98700994      -0.36011781      -0.11542270        6 
O       1.66002961       0.58712247      -1.14640043        8 
H      -0.06775147       1.45906537       1.47625105        1 
H       0.83868742      -0.63115455       1.73137875        1 
H      -2.39705599      -3.20262023       0.77551644        1 
H      -3.56661503       2.44517693      -0.67512988        1 
H       3.12967023       2.55748735       0.13161052        1 
H       2.11337875       2.37368633       1.56434000        1 
H       3.97246110       0.38060296       0.39246638        1 
H       2.96648073       0.11088265       1.81698007        1 
H      -3.46782065      -1.97946436       0.02149817        1 
H      -2.25848135      -2.85639298      -0.96589107        1 
H      -4.21911588       1.86940245       0.89094364        1 
H      -3.87075787       0.71176455      -0.43165997        1 
H       0.89081782       2.49065918      -0.92865615        1 
C       2.59697543      -1.60143035      -0.72805432        6 
H       3.51956749      -1.31713230      -1.23960608        1 
H       2.82810583      -2.34120027       0.03941277        1 
H       1.92415108      -2.06341437      -1.44832025        1 
