32
Lattice="0.0 0.0 0.0 0.0 0.0 0.0 0.0 0.0 0.0" Properties=species:S:1:pos:R:3:Z:I:1 pbc="F F F"
C       0.32112029       1.12313966       0.61627277        6 
C       0.42346003      -0.44402756       0.62709197        6 
C      -0.92114134       1.68910577      -0.05202043        6 
C      -0.74896203      -1.16150089      -0.00515625        6 
O      -2.02954426       1.25999580       0.59279721        8 
O      -0.94029057       2.44231969      -0.98953500        8 
O      -1.25706189      -2.08113820       0.84608908        8 
O      -1.16084466      -0.99935252      -1.12708261        8 
C      -2.35620256      -2.86302106       0.34325811        6 
C      -3.28818721       1.61101496      -0.01228863        6 
C       1.61890308       1.50593972      -0.12958984        6 
C       2.82919416       1.28211925       0.80124264        6 
C       2.92624003      -0.27080200       0.79083154        6 
C       1.76667280      -0.65438956      -0.17049222        6 
O       1.75339831       0.44874132      -1.08707666        8 
H       0.31194986       1.49396461       1.64435060        1 
H       0.52283643      -0.81466606       1.64541489        1 
H      -2.04497537      -3.44557050      -0.52538304        1 
H      -3.38377842       2.69371777      -0.10106093        1 
H       3.72295198       1.73923005       0.37442989        1 
H       2.67682734       1.70171538       1.79821994        1 
H       3.87538129      -0.60751019       0.37018496        1 
H       2.81653159      -0.72144735       1.77905933        1 
H      -2.64362526      -3.51950571       1.16159924        1 
H      -3.18662859      -2.21473032       0.05987610        1 
H      -4.05100519       1.21124217       0.65257040        1 
H      -3.36158062       1.15559271      -1.00124736        1 
H       1.56838027       2.46158295      -0.64315013        1 
C       1.93023024      -1.96784872      -0.90210943        6 
H       2.89356387      -1.98605202      -1.41594414        1 
H       1.90036585      -2.80306782      -0.19675101        1 
H       1.14054448      -2.09941546      -1.64234627        1 
