32
Lattice="0.0 0.0 0.0 0.0 0.0 0.0 0.0 0.0 0.0" Properties=species:S:1:pos:R:3:Z:I:1 pbc="F F F"
C      -0.03293606       0.93601177       0.86971712        6 
C       0.68197151      -0.45752185       0.72408319        6 
C      -1.42841832       0.99307372       0.23741663        6 
C      -0.26862955      -1.64305314       0.77997283        6 
O      -1.59139437       2.07105058      -0.55384504        8 
O      -2.32292833       0.22074640       0.47799754        8 
O      -0.47379905      -2.24473630      -0.40468591        8 
O      -0.84018403      -1.95417116       1.79461973        8 
C      -1.49206658      -3.26469322      -0.41837791        6 
C      -2.88884624       2.21853964      -1.15924531        6 
C       0.97859047       1.80427638       0.08892713        6 
C       2.36429634       1.80335229       0.77774708        6 
C       2.95010453       0.44711886       0.29210636        6 
C       1.72266681      -0.17219615      -0.42572136        6 
O       1.17811284       0.99482250      -1.08084903        8 
H      -0.15094796       1.20816220       1.92026741        1 
H       1.24973956      -0.59403094       1.64786098        1 
H      -2.44654559      -2.83566268      -0.11174052        1 
H      -3.10630865       1.36265669      -1.79965334        1 
H       2.96354928       2.64708365       0.43414281        1 
H       2.28245900       1.87329711       1.86522075        1 
H       3.75041653       0.60067842      -0.43418060        1 
H       3.33274993      -0.18138587       1.09836852        1 
H      -1.53502342      -3.61497287      -1.44758846        1 
H      -1.22547167      -4.08056274       0.25485053        1 
H      -2.82954939       3.13122457      -1.74791598        1 
H      -3.66161775       2.30076216      -0.39352218        1 
H       0.60307333       2.77950575      -0.20085268        1 
C       2.03908171      -1.24989111      -1.43650204        6 
H       2.81478470      -0.89003989      -2.11675302        1 
H       2.40671609      -2.14875523      -0.93527955        1 
H       1.15498194      -1.51908804      -2.01003289        1 
