32
Lattice="0.0 0.0 0.0 0.0 0.0 0.0 0.0 0.0 0.0" Properties=species:S:1:pos:R:3:Z:I:1 pbc="F F F"
C      -0.40857329       0.94373569       0.56712764        6 
C       0.71941467      -0.11888824       0.80510315        6 
C      -1.65548759       0.42249617      -0.11428155        6 
C       0.16304880      -1.53601373       0.74977255        6 
O      -2.72692738       1.16046671       0.25103997        8 
O      -1.70891024      -0.46996772      -0.92317860        8 
O       0.64122315      -2.30738701      -0.23100571        8 
O      -0.64516281      -1.91481175       1.56676929        8 
C       0.02261022      -3.60124881      -0.36914082        6 
C      -3.97301910       0.81680166      -0.38476489        6 
C       0.32626879       1.92843123      -0.39321443        6 
C       1.38835157       2.71347764       0.40350443        6 
C       2.48964685       1.62939746       0.56271606        6 
C       1.85031469       0.40384975      -0.15492983        6 
O       1.09967076       1.05118326      -1.20762409        8 
H      -0.70816281       1.43726883       1.48970013        1 
H       1.05706522      -0.02629896       1.83959715        1 
H      -1.03829579      -3.47689000      -0.58820857        1 
H      -3.89359981       0.93057860      -1.46702156        1 
H       1.74517952       3.56297747      -0.18043783        1 
H       1.00348199       3.09126260       1.35273239        1 
H       3.40297221       1.91465342       0.03854391        1 
H       2.74911124       1.41843837       1.60188410        1 
H       0.53463023      -4.07672069      -1.20286014        1 
H       0.14328703      -4.18567585       0.54385041        1 
H      -4.70630967       1.50979546       0.02172426        1 
H      -4.24579920      -0.21302054      -0.14983532        1 
H      -0.33673920       2.52770165      -1.01458017        1 
C       2.85396607      -0.56619899      -0.73816108        6 
H       3.59682008      -0.01141135      -1.31585230        1 
H       3.37123709      -1.10668550       0.05937899        1 
H       2.36614101      -1.29198365      -1.38305219        1 
