32
Lattice="0.0 0.0 0.0 0.0 0.0 0.0 0.0 0.0 0.0" Properties=species:S:1:pos:R:3:Z:I:1 pbc="F F F"
C      -0.87846864      -0.20473050      -0.88813303        6 
C       0.65401883      -0.26944259      -0.65768718        6 
C      -1.57993302       0.83437287      -0.00316566        6 
C       1.36620543       1.07222407      -0.69265692        6 
O      -2.88656438       0.51335946       0.14430308        8 
O      -1.10665237       1.85103236       0.43197229        8 
O       2.46370989       1.11520679       0.08681969        8 
O       1.02451640       1.97692731      -1.41114598        8 
C       3.20355758       2.35137600       0.04990961        6 
C      -3.67826681       1.43264119       0.91723089        6 
C      -1.24796629      -1.59722963      -0.31208852        6 
C      -0.50249791      -2.75580021      -1.02032480        6 
C       0.88638844      -2.71367541      -0.31634815        6 
C       0.77673932      -1.38243153       0.46383235        6 
O      -0.58072012      -1.49671938       0.96004338        8 
H      -1.15894595      -0.03808547      -1.92878584        1 
H       1.06613592      -0.71863394      -1.57044166        1 
H       2.57286309       3.17674143       0.38227265        1 
H      -3.29810399       1.49384040       1.93806528        1 
H      -1.01470674      -3.70304302      -0.84811200        1 
H      -0.44113056      -2.60423460      -2.10091157        1 
H       0.99622937      -3.53904009       0.38988989        1 
H       1.73071540      -2.73568195      -1.00900842        1 
H       4.04074963       2.20752365       0.72953636        1 
H       3.55801128       2.55451818      -0.96169182        1 
H      -4.68660521       1.02400145       0.90883091        1 
H      -3.66057276       2.42571857       0.46598372        1 
H      -2.31043839      -1.75052022      -0.15868436        1 
C       1.72442446      -1.19777979       1.62386091        6 
H       1.59134712      -2.02897240       2.32055280        1 
H       2.75937804      -1.18219934       1.28113387        1 
H       1.52490501      -0.26188131       2.14591843        1 
