32
Lattice="0.0 0.0 0.0 0.0 0.0 0.0 0.0 0.0 0.0" Properties=species:S:1:pos:R:3:Z:I:1 pbc="F F F"
C       0.12183888       1.15830522       0.40353076        6 
C       0.55383741      -0.28307002       0.83970651        6 
C      -1.30314084       1.33107907      -0.08501168        6 
C      -0.36378471      -1.43934622       0.50026134        6 
O      -2.17287807       0.93286616       0.87123850        8 
O      -1.63909379       1.82092042      -1.13237350        8 
O      -1.05246742      -1.24499555      -0.63675176        8 
O      -0.39614523      -2.46845257       1.13340691        8 
C      -1.90149532      -2.32103761      -1.07047377        6 
C      -3.56761953       1.00961188       0.52939326        6 
C       1.20161806       1.51744369      -0.64635973        6 
C       2.48510908       1.93277934       0.09543462        6 
C       2.93605588       0.56055471       0.67354358        6 
C       1.90746675      -0.41611951       0.03275642        6 
O       1.56759116       0.24483258      -1.19647480        8 
H       0.19676307       1.81610721       1.27482036        1 
H       0.73347552      -0.34953752       1.91131108        1 
H      -2.68417648      -2.50660603      -0.33255546        1 
H      -3.85303814       2.03795738       0.30297973        1 
H       3.21738717       2.32259928      -0.61323953        1 
H       2.31124596       2.69381710       0.85851153        1 
H       3.94532266       0.30044732       0.35031391        1 
H       2.91491051       0.52088438       1.76457918        1 
H      -2.32995140      -1.98694694      -2.01258018        1 
H      -1.31991022      -3.23282672      -1.21288646        1 
H      -4.10205717       0.64712094       1.40482433        1 
H      -3.77858745       0.38003662      -0.33699100        1 
H       0.85290995       2.17509658      -1.43736887        1 
C       2.41617645      -1.81520353      -0.23052895        6 
H       3.34660892      -1.76428777      -0.79976003        1 
H       2.60435179      -2.33757000       0.70971910        1 
H       1.69397750      -2.39679420      -0.80540749        1 
