32
Lattice="0.0 0.0 0.0 0.0 0.0 0.0 0.0 0.0 0.0" Properties=species:S:1:pos:R:3:Z:I:1 pbc="F F F"
C      -0.27805701       0.87794847      -0.85602114        6 
C      -0.47649496      -0.64573782      -0.59147063        6 
C       0.89436071       1.56471789      -0.17638676        6 
C       0.78083019      -1.43977120      -0.29119185        6 
O       1.34748575       0.90028068       0.89982594        8 
O       1.31265840       2.64488330      -0.52075711        8 
O       1.77485802      -1.03702245      -1.11830251        8 
O       0.88480918      -2.38287047       0.45052706        8 
C       3.02474224      -1.73643312      -0.99099489        6 
C       2.39841465       1.53258356       1.65014111        6 
C      -1.58301526       1.42342845      -0.20451768        6 
C      -2.82004544       0.93916997      -0.99660772        6 
C      -2.96298141      -0.51764426      -0.46976123        6 
C      -1.69417668      -0.65695134       0.41125737        6 
O      -1.63641787       0.66184633       1.00358974        8 
H      -0.21245079       1.12291432      -1.91486904        1 
H      -0.81086071      -1.09764368      -1.53221035        1 
H       2.89561252      -2.79738153      -1.21061765        1 
H       3.28902417       1.65131475       1.03058458        1 
H      -3.69266741       1.54450467      -0.74806767        1 
H      -2.66804320       0.99962478      -2.07679014        1 
H      -3.84874761      -0.62241979       0.15930771        1 
H      -3.01522323      -1.26795554      -1.26133831        1 
H       3.69110012      -1.27327033      -1.71537505        1 
H       3.41936360      -1.62539561       0.02035294        1 
H       2.59664471       0.86581070       2.48630524        1 
H       2.07482570       2.51119437       2.00685251        1 
H      -1.55601041       2.48713567       0.02163942        1 
C      -1.76316156      -1.71193668       1.48988569        6 
H      -2.66014880      -1.54264921       2.09093243        1 
H      -1.81503464      -2.70961564       1.05043913        1 
H      -0.88667840      -1.67626623       2.13377218        1 
