32
Lattice="0.0 0.0 0.0 0.0 0.0 0.0 0.0 0.0 0.0" Properties=species:S:1:pos:R:3:Z:I:1 pbc="F F F"
C      -0.08901868       0.96021964       0.44724605        6 
C       0.52658110      -0.47544145       0.61854314        6 
C      -1.45441999       1.09126515      -0.19568897        6 
C      -0.23793869      -1.61683688      -0.03218421        6 
O      -2.24211151       1.88983734       0.57366095        8 
O      -1.82131098       0.62017266      -1.23914580        8 
O      -0.84565575      -2.36000182       0.93268201        8 
O      -0.34461214      -1.85236953      -1.20414135        8 
C      -1.65763022      -3.44956351       0.45708235        6 
C      -3.55867438       2.15418537       0.05460620        6 
C       1.02787446       1.66885172      -0.39388081        6 
C       2.15762151       2.07891590       0.56810382        6 
C       2.75172587       0.68295966       0.90864368        6 
C       1.94030930      -0.25767501      -0.03258686        6 
O       1.61883573       0.60841361      -1.13656709        8 
H      -0.16850335       1.42873245       1.42683790        1 
H       0.61440425      -0.71087559       1.67796558        1 
H      -1.05101257      -4.16243176      -0.10375226        1 
H      -3.49485164       2.65043875      -0.91514935        1 
H       2.88379449       2.70142345       0.04270738        1 
H       1.80156914       2.63179084       1.43923764        1 
H       3.81318869       0.62837092       0.66217887        1 
H       2.63872747       0.41004037       1.95993397        1 
H      -2.06984355      -3.91620498       1.34928384        1 
H      -2.45477376      -3.07540229      -0.18739816        1 
H      -4.03468066       2.80230467       0.78723351        1 
H      -4.11876058       1.22442961      -0.05757526        1 
H       0.66607927       2.43883120      -1.07193995        1 
C       2.68597913      -1.48684391      -0.50385493        6 
H       3.64072112      -1.18969075      -0.94268117        1 
H       2.89006216      -2.15190879       0.34049420        1 
H       2.11132852      -2.02935752      -1.25315637        1 
