32
Lattice="0.0 0.0 0.0 0.0 0.0 0.0 0.0 0.0 0.0" Properties=species:S:1:pos:R:3:Z:I:1 pbc="F F F"
C       0.08662822       1.03009409       0.76539979        6 
C       0.73698596      -0.39988537       0.82741963        6 
C      -1.42165379       1.04025038       0.58382580        6 
C      -0.13238138      -1.61064633       0.56030985        6 
O      -1.80872707       1.47409309      -0.62640244        8 
O      -2.19139666       0.74904439       1.46906337        8 
O      -1.07671833      -1.39206973      -0.37070289        8 
O       0.06004174      -2.68677832       1.07502520        8 
C      -1.93624629      -2.50281996      -0.68354182        6 
C      -3.22545307       1.47357778      -0.87062303        6 
C       0.92755334       1.69701980      -0.35244234        6 
C       2.31228285       2.06686372       0.21713462        6 
C       2.96994262       0.66172852       0.32443259        6 
C       1.86485496      -0.25331008      -0.27070209        6 
O       1.23113122       0.60659594      -1.23110684        8 
H       0.24307510       1.52498528       1.72620405        1 
H       1.18366514      -0.58558515       1.80248142        1 
H      -2.51209339      -2.79162462       0.19686803        1 
H      -3.62492157       0.46433573      -0.76024266        1 
H       2.84958446       2.70104760      -0.48952474        1 
H       2.25258418       2.59578172       1.17051224        1 
H       3.87282290       0.59580416      -0.28513219        1 
H       3.23230868       0.38003538       1.34573638        1 
H      -2.59390002      -2.14518329      -1.47279818        1 
H      -1.34934060      -3.35489461      -1.02853175        1 
H      -3.34298723       1.82368992      -1.89374063        1 
H      -3.73663010       2.13877674      -0.17298955        1 
H       0.41500981       2.47935086      -0.90380679        1 
C       2.34850178      -1.52635213      -0.92614902        6 
H       3.10461717      -1.28738943      -1.67674316        1 
H       2.78758476      -2.19715901      -0.18451145        1 
H       1.52753961      -2.04870289      -1.41959027        1 
