32
Lattice="0.0 0.0 0.0 0.0 0.0 0.0 0.0 0.0 0.0" Properties=species:S:1:pos:R:3:Z:I:1 pbc="F F F"
C      -0.29211790       1.13126298       0.49649212        6 
C       0.49403191      -0.21804569       0.65709799        6 
C      -1.67689398       1.05527203      -0.12831936        6 
C      -0.18253137      -1.45574526       0.09425029        6 
O      -2.58595424       0.69427493       0.80384187        8 
O      -1.95140361       1.33026781      -1.26717529        8 
O       0.54070340      -2.55584855       0.40308308        8 
O      -1.24369851      -1.51197198      -0.47314657        8 
C       0.00723632      -3.81316830      -0.05244275        6 
C      -3.91453163       0.44434692       0.31205940        6 
C       0.68962623       1.96357337      -0.36531779        6 
C       1.82097140       2.49391404       0.53298479        6 
C       2.59741756       1.17869809       0.81986242        6 
C       1.84619697       0.15283837      -0.07884548        6 
O       1.35814518       0.97049169      -1.15318912        8 
H      -0.42868190       1.57558982       1.48435447        1 
H       0.68782460      -0.43697251       1.70837288        1 
H      -0.05693717      -3.82740825      -1.14165632        1 
H      -4.32762416       1.34005224      -0.15442982        1 
H       2.43733099       3.20440667      -0.02002762        1 
H       1.45289276       2.99101444       1.43276292        1 
H       3.63949485       1.25199376       0.50433514        1 
H       2.58821138       0.88888867       1.87257485        1 
H       0.70665112      -4.56821811       0.29960156        1 
H      -0.98553580      -3.98075808       0.36744016        1 
H      -4.50020830       0.16213225       1.18462816        1 
H      -3.88988688      -0.36821678      -0.41559046        1 
H       0.20524629       2.68156100      -1.02074694        1 
C       2.71075535      -0.96151088      -0.62598030        6 
H       3.58187261      -0.52309585      -1.11805747        1 
H       3.04988458      -1.61907909       0.17575708        1 
H       2.16988813      -1.56323755      -1.35709121        1 
