32
Lattice="0.0 0.0 0.0 0.0 0.0 0.0 0.0 0.0 0.0" Properties=species:S:1:pos:R:3:Z:I:1 pbc="F F F"
C      -0.88071428      -0.16152234      -0.89282449        6 
C       0.64587811      -0.25574019      -0.64246391        6 
C      -1.58520550       0.87075858      -0.00141648        6 
C       1.40122859       1.06146980      -0.66012827        6 
O      -2.89861053       0.56089287       0.11556799        8 
O      -1.11072389       1.87366007       0.46189871        8 
O       2.55005840       1.01235374       0.04477589        8 
O       1.06019358       2.01716928      -1.30826408        8 
C       3.35249668       2.20871549       0.00959720        6 
C      -3.69405211       1.47327883       0.89241415        6 
C      -1.27837775      -1.55743745      -0.33970779        6 
C      -0.53547893      -2.72130774      -1.04250299        6 
C       0.84031098      -2.70517655      -0.31143988        6 
C       0.73369422      -1.37829305       0.47504838        6 
O      -0.63366556      -1.47693815       0.94510890        8 
H      -1.14443238       0.02274289      -1.93494407        1 
H       1.06033671      -0.71136510      -1.55150330        1 
H       2.78153518       3.05716890       0.38822219        1 
H      -3.32538598       1.51817082       1.91829813        1 
H      -1.06498754      -3.66194281      -0.88690320        1 
H      -0.45101757      -2.56367325      -2.12060857        1 
H       0.92474580      -3.53741010       0.39034139        1 
H       1.69770679      -2.73371945      -0.98753733        1 
H       4.20787115       2.00227947       0.64923429        1 
H       3.67653405       2.42075680      -1.01058729        1 
H      -4.70449315       1.07046383       0.86675775        1 
H      -3.66618531       2.47263692       0.45561310        1 
H      -2.34542093      -1.69799952      -0.20814028        1 
C       1.66046072      -1.20784789       1.65400246        6 
H       1.49543795      -2.03312264       2.35084666        1 
H       2.70243856      -1.21337173       1.33404589        1 
H       1.46694980      -0.26633375       2.16904709        1 
