32
Lattice="0.0 0.0 0.0 0.0 0.0 0.0 0.0 0.0 0.0" Properties=species:S:1:pos:R:3:Z:I:1 pbc="F F F"
C       0.24776254       1.11666933       0.62329048        6 
C       0.59737864      -0.40030810       0.84471472        6 
C      -1.17621269       1.60830590       0.44866922        6 
C      -0.48703276      -1.45493536       0.68713608        6 
O      -1.87945189       0.94671789      -0.48038991        8 
O      -1.60202897       2.57476563       1.04039143        8 
O      -0.94335601      -1.58955246      -0.56366737        8 
O      -0.82326775      -2.17982065       1.59763188        8 
C      -1.94324709      -2.59940850      -0.77062448        6 
C      -3.21056122       1.43032039      -0.73873098        6 
C       1.15709999       1.46068919      -0.60982363        6 
C       2.58215164       1.71261326      -0.08536108        6 
C       2.98075553       0.26776833       0.32705938        6 
C       1.77064436      -0.56950283      -0.18935645        6 
O       1.29400448       0.21826149      -1.29627363        8 
H       0.59449440       1.67512098       1.49163258        1 
H       0.95630935      -0.54085732       1.86318050        1 
H      -2.82665351      -2.39165558      -0.16432287        1 
H      -3.81703145       1.38172836       0.16679598        1 
H       3.21536992       2.08145858      -0.89383460        1 
H       2.61650106       2.43181209       0.73487960        1 
H       3.89521200      -0.05357194      -0.17304555        1 
H       3.12902610       0.15069076       1.40236111        1 
H      -2.18496732      -2.55097315      -1.83018645        1 
H      -1.55598758      -3.58569389      -0.50837751        1 
H      -3.61044803       0.77106737      -1.50611104        1 
H      -3.18064750       2.46100875      -1.09536044        1 
H       0.75000581       2.21318449      -1.28180863        1 
C       2.12148910      -1.97677973      -0.62108258        6 
H       2.95721253      -1.94974371      -1.32359789        1 
H       2.42176035      -2.57173324       0.24592273        1 
H       1.27799904      -2.46488104      -1.10803813        1 
