32
Lattice="0.0 0.0 0.0 0.0 0.0 0.0 0.0 0.0 0.0" Properties=species:S:1:pos:R:3:Z:I:1 pbc="F F F"
C      -0.24366045       0.84383957      -0.88184566        6 
C      -0.47628757      -0.68815911      -0.57609939        6 
C       1.13291899       1.33438729      -0.45726496        6 
C       0.73832480      -1.36033271       0.03221065        6 
O       1.09648307       2.20871724       0.55578855        8 
O       2.15087050       0.98364998      -1.00853451        8 
O       1.29379411      -2.21715824      -0.84691266        8 
O       1.15896046      -1.18203406       1.14944510        8 
C       2.51871785      -2.84583078      -0.42423291        6 
C       2.37266235       2.65821324       1.05107092        6 
C      -1.44838600       1.46763866      -0.13766378        6 
C      -2.74382169       1.15820326      -0.92026123        6 
C      -2.95819591      -0.33890628      -0.55945274        6 
C      -1.73736054      -0.62190558       0.35872295        6 
O      -1.56732671       0.64128306       1.02492649        8 
H      -0.29006961       1.01188890      -1.95937464        1 
H      -0.70834370      -1.21590720      -1.49953911        1 
H       2.35568153      -3.43218693       0.48133181        1 
H       2.94240569       1.80971002       1.43127776        1 
H      -3.56384509       1.77688178      -0.55339854        1 
H      -2.63912989       1.33625647      -1.99270471        1 
H      -3.87981703      -0.48430559       0.00688940        1 
H      -2.98751321      -0.99831662      -1.42885063        1 
H       2.81378175      -3.48830987      -1.25076609        1 
H       3.27894838      -2.08667686      -0.23656206        1 
H       2.13975296       3.35424231       1.85346187        1 
H       2.93726841       3.15255900       0.25940120        1 
H      -1.30899755       2.50238870       0.16002842        1 
C      -1.92004749      -1.74570859       1.35348609        6 
H      -2.82709093      -1.57609664       1.93799437        1 
H      -2.02401683      -2.70041058       0.82950609        1 
H      -1.07063734      -1.80669730       2.03281662        1 
