32
Lattice="0.0 0.0 0.0 0.0 0.0 0.0 0.0 0.0 0.0" Properties=species:S:1:pos:R:3:Z:I:1 pbc="F F F"
C       0.28624370       0.89676508       0.80404884        6 
C       0.52300725      -0.64261815       0.61615455        6 
C      -1.01746035       1.46911443       0.28462310        6 
C      -0.69696199      -1.46411489       0.23295692        6 
O      -1.28596359       1.07457685      -0.97440621        8 
O      -1.71764818       2.22723021       0.91185496        8 
O      -1.77216954      -1.03841768       0.93423479        8 
O      -0.72259139      -2.43544252      -0.47874985        8 
C      -2.99879910      -1.76045614       0.72540293        6 
C      -2.50909954       1.56629075      -1.54736768        6 
C       1.50498069       1.45990237       0.01485670        6 
C       2.79211172       1.20766657       0.82973678        6 
C       3.00278353      -0.31236255       0.57816337        6 
C       1.78435842      -0.66598464      -0.32288903        6 
O       1.62698808       0.55286087      -1.07952967        8 
H       0.32614865       1.18246282       1.85353694        1 
H       0.79774553      -1.06233848       1.58958862        1 
H      -2.88660801      -2.80115774       1.03342668        1 
H      -3.36254794       1.26728581      -0.93599381        1 
H       3.61673536       1.79674465       0.42606902        1 
H       2.67595978       1.46582462       1.88424516        1 
H       3.92583480      -0.49915210       0.02695439        1 
H       3.03096040      -0.90604465       1.49402985        1 
H      -3.73920230      -1.25452679       1.34084599        1 
H      -3.28443719      -1.72793128      -0.32728135        1 
H      -2.56620076       1.11623109      -2.53595281        1 
H      -2.48737415       2.65459771      -1.62162433        1 
H       1.37353131       2.47445724      -0.35667210        1 
C       2.00080426      -1.83720308      -1.25410748        6 
H       2.93313956      -1.68421848      -1.80340796        1 
H       2.07352538      -2.76932920      -0.69026736        1 
H       1.17976050      -1.93796047      -1.96037086        1 
