32
Lattice="0.0 0.0 0.0 0.0 0.0 0.0 0.0 0.0 0.0" Properties=species:S:1:pos:R:3:Z:I:1 pbc="F F F"
C       0.17608104       0.89647408       0.65106922        6 
C       0.63669856      -0.60478533       0.75368149        6 
C      -1.31133636       1.19406877       0.61790765        6 
C      -0.29280597      -1.69052203       0.21232220        6 
O      -1.73254085       1.61279570      -0.59161576        8 
O      -2.02896599       1.11190083       1.58447745        8 
O      -1.56175018      -1.28090826       0.06138516        8 
O       0.06723868      -2.80832281      -0.06734534        8 
C      -2.49553427      -2.25231061      -0.44417877        6 
C      -3.13866785       1.88795308      -0.70600624        6 
C       1.06742659       1.43298983      -0.50711459        6 
C       2.39901937       1.87328835       0.11805518        6 
C       2.92470646       0.49512214       0.60231586        6 
C       1.95548424      -0.50852056      -0.10695512        6 
O       1.45626535       0.25609975      -1.22694223        8 
H       0.48506976       1.37175402       1.58554402        1 
H       0.85108186      -0.87742678       1.78947367        1 
H      -2.52559732      -3.12545270       0.20833906        1 
H      -3.71743348       0.98890368      -0.48796648        1 
H       3.04930604       2.29968600      -0.64760830        1 
H       2.27956040       2.60599615       0.91881670        1 
H       3.95112403       0.31600458       0.28191302        1 
H       2.89453651       0.38554338       1.68897062        1 
H      -3.45885741      -1.74741742      -0.45301676        1 
H      -2.21126405      -2.56138168      -1.45094321        1 
H      -3.29080004       2.20102895      -1.73670778        1 
H      -3.43441672       2.67881661      -0.01495638        1 
H       0.57852009       2.13216462      -1.17775454        1 
C       2.64668439      -1.76707054      -0.58727078        6 
H       3.54893015      -1.48099476      -1.13312527        1 
H       2.93477085      -2.39217179       0.26076118        1 
H       2.00888999      -2.35886806      -1.23800652        1 
