32
Lattice="0.0 0.0 0.0 0.0 0.0 0.0 0.0 0.0 0.0" Properties=species:S:1:pos:R:3:Z:I:1 pbc="F F F"
C      -0.55074025       0.77942560       0.51217369        6 
C       0.74441775      -0.01945978       0.85847718        6 
C      -1.82814916       0.01695136       0.22507151        6 
C       0.71766678      -1.52379558       0.62343073        6 
O      -2.85729144       0.89832516       0.17165357        8 
O      -1.97075380      -1.16450479       0.04154013        8 
O       0.60464589      -1.85765980      -0.66816319        8 
O       0.87354199      -2.32520464       1.51595153        8 
C       0.44490479      -3.25798253      -0.94709888        6 
C      -4.14842194       0.34149350      -0.14134933        6 
C      -0.06016473       1.70164497      -0.65612482        6 
C       0.68795596       2.89374094      -0.03116964        6 
C       1.95843789       2.17253323       0.50090533        6 
C       1.77983251       0.72893724      -0.05989912        6 
O       0.99847211       0.95518031      -1.25078703        8 
H      -0.80917919       1.41588903       1.36176948        1 
H       0.99622594       0.09585846       1.91150550        1 
H      -0.47960969      -3.61790750      -0.49323788        1 
H      -4.12956294      -0.13594754      -1.12231963        1 
H       0.94018396       3.61858542      -0.80700840        1 
H       0.11198234       3.40523681       0.74225978        1 
H       2.87005858       2.61821666       0.09983032        1 
H       2.03588230       2.18271897       1.59016018        1 
H       0.39122345      -3.33145738      -2.03112746        1 
H       1.28992951      -3.83070544      -0.56174633        1 
H      -4.83584258       1.18441345      -0.13837293        1 
H      -4.43846275      -0.39452394       0.60993717        1 
H      -0.81810681       1.93940307      -1.39838621        1 
C       3.06984037       0.00581718      -0.37565821        6 
H       3.69302896       0.62576968      -1.02370382        1 
H       3.62351215      -0.19495790       0.54573155        1 
H       2.87635154      -0.93960950      -0.88117324        1 
