32
Lattice="0.0 0.0 0.0 0.0 0.0 0.0 0.0 0.0 0.0" Properties=species:S:1:pos:R:3:Z:I:1 pbc="F F F"
C      -0.28110559       0.92452431      -0.92262803        6 
C      -0.36804467      -0.60814288      -0.59142667        6 
C       0.96415363       1.68791823      -0.49370331        6 
C       0.90508892      -1.29133776      -0.13343014        6 
O       1.08726982       1.79250896       0.83095695        8 
O       1.69975354       2.23506159      -1.28588678        8 
O       1.14649923      -2.36912403      -0.92203455        8 
O       1.61170180      -0.99149185       0.79511837        8 
C       2.31424348      -3.14330651      -0.59113413        6 
C       2.25401476       2.47762221       1.31464653        6 
C      -1.54855932       1.42497126      -0.16637834        6 
C      -2.81943942       0.91548863      -0.88726416        6 
C      -2.86357686      -0.56342991      -0.40423899        6 
C      -1.56498761      -0.65027456       0.43979551        6 
O      -1.52381894       0.65360323       1.03583479        8 
H      -0.35741318       1.08318803      -1.99711816        1 
H      -0.66857631      -1.13380111      -1.49592664        1 
H       2.22494010      -3.55807341       0.41425324        1 
H       3.15526187       1.94613051       1.00557307        1 
H      -3.69522444       1.47176754      -0.55104804        1 
H      -2.75215272       1.01580026      -1.97242224        1 
H      -3.72502419      -0.74227811       0.24215385        1 
H      -2.89168898      -1.29057202      -1.21777607        1 
H       2.35349773      -3.93875760      -1.33204516        1 
H       3.21019282      -2.52326028      -0.64470871        1 
H       2.16127966       2.46933156       2.39804139        1 
H       2.28669870       3.50003950       0.93452449        1 
H      -1.53900841       2.48522758       0.07596884        1 
C      -1.52830933      -1.73246466       1.49424314        6 
H      -2.39807890      -1.63941099       2.14776017        1 
H      -1.55336043      -2.72019677       1.02540036        1 
H      -0.62524404      -1.65177693       2.10033497        1 
