32
Lattice="0.0 0.0 0.0 0.0 0.0 0.0 0.0 0.0 0.0" Properties=species:S:1:pos:R:3:Z:I:1 pbc="F F F"
C      -0.06957481       1.17959840       0.43468887        6 
C       0.42556188      -0.27974816       0.67546291        6 
C      -1.49661588       1.36945905      -0.04445357        6 
C      -0.38874778      -1.34311831      -0.03628151        6 
O      -2.35830486       0.77463458       0.80884533        8 
O      -1.83654946       2.06091845      -0.97025990        8 
O      -0.07543879      -2.56855283       0.44281315        8 
O      -1.22660362      -1.16258695      -0.88304040        8 
C      -0.76285626      -3.67780885      -0.16527038        6 
C      -3.74535065       0.81426182       0.42949927        6 
C       1.02009323       1.75286650      -0.50573191        6 
C       2.20903490       2.19785934       0.36204745        6 
C       2.71079928       0.81522792       0.86819006        6 
C       1.85982510      -0.17685670       0.01721292        6 
O       1.55043339       0.59076083      -1.15899635        8 
H      -0.04323897       1.70537579       1.39478919        1 
H       0.48647814      -0.54462550       1.73015588        1 
H      -0.53554650      -3.73031868      -1.23135711        1 
H      -4.08433702       1.84464513       0.31433667        1 
H       2.96130713       2.68824282      -0.25746714        1 
H       1.92384634       2.88158174       1.16455431        1 
H       3.77228010       0.67061848       0.66172093        1 
H       2.55790598       0.66653529       1.93962314        1 
H      -0.39569865      -4.56358150       0.34836742        1 
H      -1.84106759      -3.57558186      -0.03392236        1 
H      -4.28262420       0.32133874       1.23715274        1 
H      -3.88558137       0.27594965      -0.50928158        1 
H       0.64593454       2.45734963      -1.24265418        1 
C       2.56826085      -1.45844951      -0.36243270        6 
H       3.53086332      -1.21434007      -0.81689079        1 
H       2.74335051      -2.08121933       0.51751084        1 
H       1.98895115      -2.03799087      -1.08198363        1 
