32
Lattice="0.0 0.0 0.0 0.0 0.0 0.0 0.0 0.0 0.0" Properties=species:S:1:pos:R:3:Z:I:1 pbc="F F F"
C       0.05006768       1.00857952       0.75596630        6 
C       0.74942223      -0.39591075       0.82853530        6 
C      -1.45574683       0.94084028       0.56943823        6 
C      -0.11826123      -1.60991298       0.56519709        6 
O      -1.88837430       1.61095339      -0.51129079        8 
O      -2.19078133       0.37759578       1.34547587        8 
O      -0.86291421      -1.47997455      -0.54895698        8 
O      -0.10598171      -2.60379745       1.24994846        8 
C      -1.75127750      -2.57091382      -0.84955092        6 
C      -3.30762488       1.57048594      -0.74945756        6 
C       0.87925444       1.70640768      -0.35115101        6 
C       2.24413760       2.12187881       0.23676954        6 
C       2.94776068       0.73924857       0.34914033        6 
C       1.87894438      -0.21250201      -0.25507028        6 
O       1.23146761       0.62766912      -1.22573694        8 
H       0.17682354       1.51444533       1.71707513        1 
H       1.18448513      -0.56847338       1.81091558        1 
H      -2.50041417      -2.67018549      -0.06232248        1 
H      -3.63791788       0.53843790      -0.87451273        1 
H       2.76822947       2.77608921      -0.46139828        1 
H       2.15482506       2.64526793       1.19103828        1 
H       3.85671241       0.70443348      -0.25387484        1 
H       3.21183130       0.46672206       1.37258462        1 
H      -2.21917686      -2.30935065      -1.79615477        1 
H      -1.19475828      -3.50466567      -0.94040438        1 
H      -3.46359447       2.13715652      -1.66464825        1 
H      -3.84900247       2.02284937       0.08271066        1 
H       0.34626787       2.47120210      -0.90722277        1 
C       2.41204739      -1.47326863      -0.89648488        6 
H       3.16637278      -1.21790115      -1.64362961        1 
H       2.87147304      -2.11870775      -0.14380691        1 
H       1.61324658      -2.02787957      -1.39035139        1 
