32
Lattice="0.0 0.0 0.0 0.0 0.0 0.0 0.0 0.0 0.0" Properties=species:S:1:pos:R:3:Z:I:1 pbc="F F F"
C       0.00243030       1.05095981       0.50686015        6 
C       0.65396041      -0.36210432       0.71804644        6 
C      -1.32188607       1.12882778      -0.23693560        6 
C      -0.13905036      -1.63878179       0.50263613        6 
O      -2.32917522       1.37814606       0.63577694        8 
O      -1.48467744       1.02939086      -1.42455115        8 
O      -1.38331991      -1.45002479       0.04301225        8 
O       0.31242846      -2.73032229       0.76123635        8 
C      -2.17559793      -2.63091555      -0.17998292        6 
C      -3.64779924       1.42920413       0.06679492        6 
C       1.11240163       1.73909769      -0.33619828        6 
C       2.34651686       2.01888522       0.54993412        6 
C       2.97981979       0.60070611       0.63460953        6 
C       1.96171519      -0.24598965      -0.17543365        6 
O       1.55291410       0.68246275      -1.18998037        8 
H      -0.13970590       1.53982508       1.47023286        1 
H       0.96461508      -0.44661618       1.76144575        1 
H      -2.34506438      -3.15777729       0.76036261        1 
H      -3.71640069       2.22274700      -0.67902272        1 
H       3.01517331       2.72534627       0.05603794        1 
H       2.07718249       2.43502641       1.52305364        1 
H       3.95008070       0.56989196       0.13602941        1 
H       3.11238648       0.23756802       1.65548740        1 
H      -3.11405196      -2.27199155      -0.59620636        1 
H      -1.67380739      -3.29624561      -0.88299607        1 
H      -4.31861570       1.62786355       0.90008939        1 
H      -3.89298692       0.47556858      -0.40417549        1 
H       0.76174906       2.57280839      -0.93953991        1 
C       2.51288509      -1.50335788      -0.80739214        6 
H       3.39386591      -1.24698561      -1.40009714        1 
H       2.79159212      -2.23176630      -0.04536838        1 
H       1.77691071      -1.96681304      -1.46622312        1 
