32
Lattice="0.0 0.0 0.0 0.0 0.0 0.0 0.0 0.0 0.0" Properties=species:S:1:pos:R:3:Z:I:1 pbc="F F F"
C       0.20276285       1.19134927       0.46695398        6 
C       0.57939149      -0.28908760       0.84739029        6 
C      -1.16966246       1.42316813      -0.14409123        6 
C      -0.52113902      -1.31526852       0.66389957        6 
O      -2.13461078       0.89234412       0.63379439        8 
O      -1.39321274       2.06217348      -1.14082749        8 
O      -0.87677910      -1.45850557      -0.62818604        8 
O      -1.04335735      -1.91743260       1.57005235        8 
C      -1.95964657      -2.36705733      -0.89058054        6 
C      -3.48779705       1.04138224       0.16774633        6 
C       1.34730764       1.55160378      -0.50886366        6 
C       2.65079536       1.76306970       0.28668383        6 
C       3.01610406       0.29518565       0.64803551        6 
C       1.86533579      -0.49817673      -0.03307458        6 
O       1.58493692       0.31181539      -1.18751000        8 
H       0.22807637       1.81229435       1.36665634        1 
H       0.83048008      -0.34905756       1.90544439        1 
H      -2.85263396      -2.06156601      -0.34299680        1 
H      -3.76349617       2.09603264       0.12401588        1 
H       3.41133567       2.21501052      -0.35155920        1 
H       2.51676045       2.40738879       1.15825948        1 
H       3.96995485       0.00343068       0.20554414        1 
H       3.07303166       0.11065461       1.72250060        1 
H      -2.12733367      -2.31450440      -1.96402640        1 
H      -1.68979756      -3.38176729      -0.59282471        1 
H      -4.10213809       0.51335355       0.89355613        1 
H      -3.59682254       0.60111166      -0.82476032        1 
H       1.08627512       2.32185203      -1.22873071        1 
C       2.21029056      -1.91711869      -0.42827075        6 
H       3.12369614      -1.92122667      -1.02680951        1 
H       2.38030791      -2.52888689       0.46209123        1 
H       1.40995352      -2.36498427      -1.01693083        1 
