32
Lattice="0.0 0.0 0.0 0.0 0.0 0.0 0.0 0.0 0.0" Properties=species:S:1:pos:R:3:Z:I:1 pbc="F F F"
C       0.16424441       1.15680579       0.42268018        6 
C       0.53853845      -0.30146059       0.84025079        6 
C      -1.25495961       1.49929430       0.01099526        6 
C      -0.47010929      -1.39501996       0.53963836        6 
O      -2.16445670       0.68409128       0.57459550        8 
O      -1.54584358       2.48639791      -0.62029684        8 
O      -0.83975477      -1.42114504      -0.75387143        8 
O      -0.85735498      -2.19173029       1.36098770        8 
C      -1.80002303      -2.42578693      -1.11645007        6 
C      -3.54832290       0.98503992       0.31738898        6 
C       1.24666896       1.48262852      -0.64272293        6 
C       2.55605672       1.83632570       0.08607767        6 
C       2.95186448       0.44030886       0.64874725        6 
C       1.86985461      -0.48494348       0.01759404        6 
O       1.55033365       0.20237091      -1.20622899        8 
H       0.30862078       1.80547235       1.29445267        1 
H       0.72473954      -0.37255178       1.91046616        1 
H      -2.72076153      -2.29617680      -0.54448705        1 
H      -3.79503993       1.98560115       0.67515823        1 
H       3.29565198       2.19862827      -0.62956338        1 
H       2.42478309       2.59920096       0.85565285        1 
H       3.94334121       0.13635663       0.30881050        1 
H       2.94524948       0.39514263       1.73988256        1 
H      -1.98307595      -2.28125195      -2.17901512        1 
H      -1.40235794      -3.42459277      -0.92822755        1 
H      -4.11212434       0.23124035       0.86227723        1 
H      -3.75524065       0.92384509      -0.75219650        1 
H       0.91707076       2.16940930      -1.41743196        1 
C       2.31314338      -1.90561312      -0.25193536        6 
H       3.22858422      -1.90074765      -0.84719795        1 
H       2.51240683      -2.42492096       0.68879799        1 
H       1.54969988      -2.45755957      -0.80140039        1 
