32
Lattice="0.0 0.0 0.0 0.0 0.0 0.0 0.0 0.0 0.0" Properties=species:S:1:pos:R:3:Z:I:1 pbc="F F F"
C       0.12906421       1.13888108       0.66239426        6 
C       0.53389710      -0.38167014       0.77252241        6 
C      -1.33850719       1.45188560       0.43265313        6 
C      -0.62246267      -1.33949591       0.49078784        6 
O      -1.69895013       1.24156383      -0.84867955        8 
O      -2.08692386       1.85391503       1.28757169        8 
O      -0.24762690      -2.48297542      -0.10542463        8 
O      -1.75368246      -1.14213081       0.86231334        8 
C      -1.28634860      -3.46004906      -0.31328728        6 
C      -3.10099487       1.38386848      -1.13733844        6 
C       1.09094888       1.63212622      -0.45928060        6 
C       2.45721134       1.91937534       0.18248570        6 
C       2.89449103       0.47408922       0.54233866        6 
C       1.79869364      -0.39699050      -0.16017235        6 
O       1.35513868       0.45758544      -1.23275744        8 
H       0.36030668       1.63415412       1.60522346        1 
H       0.81633205      -0.60815003       1.80483805        1 
H      -2.06860368      -3.05101597      -0.95370511        1 
H      -3.67379799       0.66761894      -0.54619916        1 
H       3.12917568       2.36581325      -0.55249699        1 
H       2.39560743       2.58864247       1.04263433        1 
H       3.87629959       0.23803536       0.13118634        1 
H       2.93548015       0.29330899       1.61881758        1 
H      -0.79502152      -4.30115362      -0.79759351        1 
H      -1.72202174      -3.76244505       0.63976079        1 
H      -3.20031273       1.17508278      -2.20052743        1 
H      -3.44075188       2.39559611      -0.91066921        1 
H       0.68050589       2.40872500      -1.09919087        1 
C       2.34437551      -1.69791830      -0.71450838        6 
H       3.27326004      -1.48889694      -1.25020725        1 
H       2.56122745      -2.40014054       0.09382931        1 
H       1.64198543      -2.16881539      -1.39634529        1 
