32
Lattice="0.0 0.0 0.0 0.0 0.0 0.0 0.0 0.0 0.0" Properties=species:S:1:pos:R:3:Z:I:1 pbc="F F F"
C      -0.26797047       0.88681973      -0.85405645        6 
C      -0.49213471      -0.63470367      -0.60276242        6 
C       0.94066799       1.53464023      -0.20189881        6 
C       0.73824278      -1.47609483      -0.32033020        6 
O       1.28329309       0.95714951       0.96251006        8 
O       1.48475226       2.51763067      -0.64705020        8 
O       1.80302238      -0.99181874      -0.99838689        8 
O       0.76053071      -2.52305699       0.27678975        8 
C       3.02154040      -1.74882073      -0.89299913        6 
C       2.38886230       1.54718410       1.66619116        6 
C      -1.55365986       1.44967219      -0.17815652        6 
C      -2.80764399       1.00773681      -0.96993395        6 
C      -2.97738396      -0.45636459      -0.47003078        6 
C      -1.70874171      -0.63647276       0.40386333        6 
O      -1.61991727       0.66967242       1.01605726        8 
H      -0.21600598       1.13844011      -1.91181377        1 
H      -0.84101926      -1.07290410      -1.54528972        1 
H       2.87366129      -2.76606783      -1.25833051        1 
H       3.28916916       1.52064299       1.04967783        1 
H      -3.66515564       1.62574521      -0.70092512        1 
H      -2.66423007       1.08647683      -2.05000864        1 
H      -3.86326639      -0.55579571       0.15975230        1 
H      -3.04575779      -1.19118575      -1.27465690        1 
H       3.74450553      -1.21916723      -1.50926932        1 
H       3.35509576      -1.78547359       0.14548331        1 
H       2.51689720       0.94311365       2.56170507        1 
H       2.16509152       2.58170798       1.93015314        1 
H      -1.50295387       2.50852344       0.06748410        1 
C      -1.79103254      -1.70610713       1.46656425        6 
H      -2.67198734      -1.51963386       2.08584960        1 
H      -1.87704748      -2.69514656       1.01427406        1 
H      -0.90383271      -1.70369594       2.09775871        1 
