32
Lattice="0.0 0.0 0.0 0.0 0.0 0.0 0.0 0.0 0.0" Properties=species:S:1:pos:R:3:Z:I:1 pbc="F F F"
C      -0.27655788       0.81570656      -0.91657978        6 
C      -0.46889153      -0.71497822      -0.55765917        6 
C       1.06535109       1.36977502      -0.46034875        6 
C       0.78929006      -1.32859529       0.02378409        6 
O       1.00114477       2.00625702       0.71451764        8 
O       2.08072533       1.25047355      -1.10814790        8 
O       1.45741410      -2.00347563      -0.93320538        8 
O       1.16714720      -1.24179809       1.16687765        8 
C       2.74398162      -2.52939681      -0.55618820        6 
C       2.25266760       2.46275982       1.26014054        6 
C      -1.51516945       1.41707127      -0.20694193        6 
C      -2.78920708       1.02377991      -0.98700969        6 
C      -2.95671422      -0.46006993      -0.55216728        6 
C      -1.72689387      -0.65908479       0.37663071        6 
O      -1.61098124       0.63707495       0.98853784        8 
H      -0.30003587       0.94889716      -1.99793806        1 
H      -0.69322267      -1.26656574      -1.46973802        1 
H       2.64871508      -3.20002558       0.29862336        1 
H       2.90231560       1.60933089       1.45918547        1 
H      -3.63445293       1.63222513      -0.66290003        1 
H      -2.67616997       1.15046982      -2.06599301        1 
H      -3.87186824      -0.60378159       0.02497928        1 
H      -2.97061333      -1.16177536      -1.38853404        1 
H       3.10373042      -3.06673659      -1.43063946        1 
H       3.41954641      -1.71016691      -0.30629915        1 
H       1.99382696       2.96888063       2.18705750        1 
H       2.74747238       3.14581170       0.56832161        1 
H      -1.42161073       2.46888231       0.04884953        1 
C      -1.87183830      -1.74555590       1.41788767        6 
H      -2.78119639      -1.57627516       1.99901512        1 
H      -1.95235010      -2.72335140       0.93386925        1 
H      -1.01693590      -1.75540546       2.09197842        1 
