32
Lattice="0.0 0.0 0.0 0.0 0.0 0.0 0.0 0.0 0.0" Properties=species:S:1:pos:R:3:Z:I:1 pbc="F F F"
C      -0.13186118       1.07509274       0.41226196        6 
C       0.60159791      -0.25152602       0.84248723        6 
C      -1.52099710       0.98658888      -0.19449079        6 
C      -0.10260548      -1.58840960       0.69897214        6 
O      -2.42313675       1.55683476       0.64745467        8 
O      -1.82877768       0.49814331      -1.24899703        8 
O      -0.54702370      -1.82711362      -0.53736625        8 
O      -0.18079578      -2.38569181       1.60767137        8 
C      -1.21521499      -3.08067602      -0.75603951        6 
C      -3.79258521       1.53776747       0.20439297        6 
C       0.89023917       1.64291313      -0.62478513        6 
C       2.08758086       2.24827416       0.13551858        6 
C       2.80413462       0.95500008       0.61857202        6 
C       1.92035797      -0.15638770      -0.01611275        6 
O       1.45154753       0.47262632      -1.21838085        8 
H      -0.20703339       1.73217533       1.27692622        1 
H       0.84305214      -0.19459913       1.90264291        1 
H      -2.07077063      -3.17775462      -0.08596574        1 
H      -3.89840982       2.07873084      -0.73745173        1 
H       2.71589657       2.81651927      -0.55214074        1 
H       1.78626390       2.91106726       0.94918608        1 
H       3.81930809       0.88802357       0.22378739        1 
H       2.85923768       0.87047307       1.70533430        1 
H      -1.54057852      -3.05225511      -1.79305556        1 
H      -0.53169314      -3.91453506      -0.58500789        1 
H      -4.36008812       2.02578786       0.99360160        1 
H      -4.13340864       0.51039560       0.06486890        1 
H       0.45006097       2.26573323      -1.40022620        1 
C       2.63328144      -1.45483899      -0.32398176        6 
H       3.51623845      -1.25430366      -0.93438359        1 
H       2.95370487      -1.94239250       0.60036433        1 
H       1.98321846      -2.13679085      -0.87328740        1 
