32
Lattice="0.0 0.0 0.0 0.0 0.0 0.0 0.0 0.0 0.0" Properties=species:S:1:pos:R:3:Z:I:1 pbc="F F F"
C       0.25580938       1.08754978       0.74582789        6 
C       0.67113170      -0.43598015       0.84226121        6 
C      -1.21227396       1.35205305       0.45520597        6 
C      -0.49771956      -1.40353724       0.80018109        6 
O      -1.50479520       1.29265044      -0.85385787        8 
O      -2.02169429       1.62811089       1.30935409        8 
O      -0.98197208      -1.60528925      -0.43795382        8 
O      -0.97647287      -1.90269475       1.79052462        8 
C      -2.14340727      -2.44977144      -0.53567119        6 
C      -2.87826799       1.52107390      -1.21126161        6 
C       1.22493450       1.56578342      -0.37243278        6 
C       2.64866898       1.66848097       0.21473141        6 
C       3.03956293       0.16616536       0.29481793        6 
C       1.76819082      -0.52770898      -0.27413135        6 
O       1.31448140       0.43439643      -1.24150361        8 
H       0.45060946       1.58088443       1.69694146        1 
H       1.11512526      -0.61344043       1.82132059        1 
H      -2.95610945      -2.05054383       0.07289973        1 
H      -3.52752387       0.79286294      -0.72233073        1 
H       3.30067420       2.21470821      -0.46843817        1 
H       2.66910356       2.17762722       1.18038471        1 
H       3.89220528      -0.05701735      -0.34863346        1 
H       3.28434972      -0.16745003       1.30496436        1 
H      -2.41197498      -2.44785396      -1.58976161        1 
H      -1.91097435      -3.46180587      -0.20010206        1 
H      -2.91668643       1.40431499      -2.29197370        1 
H      -3.19014026       2.52592048      -0.92105457        1 
H       0.87607572       2.43012051      -0.93152010        1 
C       2.01125830      -1.87860946      -0.91147464        6 
H       2.83811790      -1.81020345      -1.62149525        1 
H       2.27695213      -2.61385579      -0.14646032        1 
H       1.12403196      -2.22531036      -1.43870928        1 
