32
Lattice="0.0 0.0 0.0 0.0 0.0 0.0 0.0 0.0 0.0" Properties=species:S:1:pos:R:3:Z:I:1 pbc="F F F"
C       0.34672796       1.04787034       0.56523347        6 
C       0.38272517      -0.51474397       0.62876715        6 
C      -0.90990749       1.85307045       0.29320552        6 
C      -0.74841061      -1.29707609      -0.02111516        6 
O      -1.89997395       1.18178392      -0.30132963        8 
O      -0.99171563       3.01666214       0.61853278        8 
O      -1.36084404      -2.06640846       0.91805497        8 
O      -1.07070231      -1.29895302      -1.17868472        8 
C      -2.44171890      -2.88773834       0.44247393        6 
C      -3.09765905       1.92320786      -0.59828264        6 
C       1.51372918       1.35697844      -0.44009935        6 
C       2.83086012       1.32451521       0.35366733        6 
C       2.90281773      -0.19156162       0.69143497        6 
C       1.72824695      -0.77560359      -0.15344334        6 
O       1.60580620       0.17327960      -1.22844668        8 
H       0.64478602       1.42164529       1.54648749        1 
H       0.45544192      -0.84578763       1.66324281        1 
H      -2.08818535      -3.58360439      -0.32033966        1 
H      -3.55019714       2.30070421       0.31995385        1 
H       3.65916026       1.62681777      -0.28926855        1 
H       2.82022155       1.97395909       1.23027074        1 
H       3.84886366      -0.63118844       0.37212100        1 
H       2.78159322      -0.40106096       1.75646321        1 
H      -2.80298293      -3.42766156       1.31520858        1 
H      -3.23407850      -2.26824445       0.01904978        1 
H      -3.75593975       1.21273104      -1.09289489        1 
H      -2.87017544       2.76031810      -1.25931451        1 
H       1.35098598       2.22346247      -1.07651707        1 
C       1.96103999      -2.17420992      -0.68139435        6 
H       2.91117494      -2.21039911      -1.21853152        1 
H       2.00922082      -2.88666664       0.14716725        1 
H       1.16701903      -2.47558415      -1.36416058        1 
