32
Lattice="0.0 0.0 0.0 0.0 0.0 0.0 0.0 0.0 0.0" Properties=species:S:1:pos:R:3:Z:I:1 pbc="F F F"
C      -0.69241620       0.71889429       0.69576289        6 
C       0.72318122       0.06791323       0.75174318        6 
C      -1.70333535      -0.08001866      -0.10497479        6 
C       0.64700875      -1.45239010       0.73962556        6 
O      -2.95096509       0.37784958       0.13830024        8 
O      -1.45915862      -0.96268317      -0.88779686        8 
O       1.49891500      -2.05771707      -0.09755325        8 
O      -0.09347954      -2.04873909       1.48618383        8 
C       1.41235755      -3.49511534      -0.14985895        6 
C      -4.00973419      -0.25225507      -0.60772940        6 
C      -0.36285622       2.00608022      -0.11060246        6 
C       0.57238677       2.92595829       0.70784839        6 
C       1.94362818       2.22353959       0.49418044        6 
C       1.52574738       0.94830483      -0.28747156        6 
O       0.48444534       1.48608537      -1.13595790        8 
H      -1.10862619       0.93472702       1.67852165        1 
H       1.13388897       0.26794690       1.74597108        1 
H       0.40893950      -3.79557103      -0.45300276        1 
H      -3.86463460      -0.09889078      -1.67839913        1 
H       0.56970069       3.93656544       0.29721875        1 
H       0.27404482       2.98962642       1.75674267        1 
H       2.60139552       2.82970631      -0.13149100        1 
H       2.47050291       1.99881660       1.42358855        1 
H       2.14705026      -3.79974903      -0.89209990        1 
H       1.64399257      -3.92926545       0.82376854        1 
H      -4.92611215       0.22824405      -0.27218580        1 
H      -4.03692060      -1.32230616      -0.39769993        1 
H      -1.23069544       2.49129488      -0.55236640        1 
C       2.61293734       0.33033086      -1.13590289        6 
H       3.05584086       1.10644416      -1.76492143        1 
H       3.39547793      -0.09945577      -0.50725197        1 
H       2.21255758      -0.45877219      -1.76793576        1 
