32
Lattice="0.0 0.0 0.0 0.0 0.0 0.0 0.0 0.0 0.0" Properties=species:S:1:pos:R:3:Z:I:1 pbc="F F F"
C      -0.51258643       0.93513746       0.81213998        6 
C       0.66446210      -0.09545281       0.71611998        6 
C      -1.89460799       0.34373998       0.57987532        6 
C       0.30571877      -1.46007577       0.16711225        6 
O      -2.39894186       0.64296610      -0.62520836        8 
O      -2.48963189      -0.27638414       1.42948348        8 
O       1.23575106      -2.36597507       0.54654204        8 
O      -0.64924041      -1.74201083      -0.51168252        8 
C       1.04719893      -3.70593883       0.05376300        6 
C      -3.64329275       0.00351383      -0.96015764        6 
C      -0.04701272       2.02857422      -0.18453057        6 
C       1.04320001       2.88297633       0.49220895        6 
C       2.22816094       1.87685948       0.51155189        6 
C       1.63610100       0.66791741      -0.26730378        6 
O       0.70164424       1.29270409      -1.16080772        8 
H      -0.55083702       1.32508255       1.83093652        1 
H       1.14569829      -0.25052442       1.68084556        1 
H       1.08521978      -3.72076202      -1.03695210        1 
H      -3.51162238      -1.07910863      -0.94791431        1 
H       1.27344529       3.75317849      -0.12449782        1 
H       0.75258017       3.23625746       1.48386802        1 
H       3.09778275       2.26947328      -0.01777965        1 
H       2.54483010       1.59954464       1.51879895        1 
H       1.86604796      -4.28647375       0.47266953        1 
H       0.08551815      -4.10040599       0.38439952        1 
H      -3.88553453       0.34956271      -1.96257926        1 
H      -4.42506110       0.28615709      -0.25339395        1 
H      -0.85049257       2.57216811      -0.67178849        1 
C       2.63672182      -0.16013784      -1.04342936        6 
H       3.23081052       0.49343027      -1.68569509        1 
H       3.30646706      -0.69124682      -0.36450048        1 
H       2.13258285      -0.89276761      -1.67717301        1 
