32
Lattice="0.0 0.0 0.0 0.0 0.0 0.0 0.0 0.0 0.0" Properties=species:S:1:pos:R:3:Z:I:1 pbc="F F F"
C      -0.76642065       0.76297249       0.87012555        6 
C       0.63963601       0.10576328       0.68986187        6 
C      -1.99357494      -0.04570215       0.46956996        6 
C       0.66809820      -1.38616617       0.41809113        6 
O      -2.07142635      -0.26068935      -0.85111654        8 
O      -2.85878606      -0.35479623       1.25548133        8 
O       1.94175408      -1.83859431       0.48749464        8 
O      -0.27221357      -2.11476725       0.22583450        8 
C       2.12644700      -3.24606179       0.24667484        6 
C      -3.16047551      -1.08821301      -1.29068912        6 
C      -0.59326149       2.02336171      -0.02637943        6 
C       0.39115988       3.00724479       0.64808090        6 
C       1.75554037       2.32569150       0.33730678        6 
C       1.30054601       1.04204798      -0.40555738        6 
O       0.15874862       1.51958082      -1.13248433        8 
H      -0.93378133       1.02880363       1.91292425        1 
H       1.20883581       0.21614992       1.61568919        1 
H       1.79638830      -3.50578219      -0.76053221        1 
H      -3.07207040      -2.08064691      -0.84578270        1 
H       0.32214996       3.99188515       0.18360264        1 
H       0.19703647       3.12442743       1.71624929        1 
H       2.35810316       2.93909480      -0.33507599        1 
H       2.35099064       2.10841126       1.22605446        1 
H       3.19456567      -3.42082759       0.35584958        1 
H       1.56327381      -3.83502098       0.97186861        1 
H      -3.06164621      -1.14371890      -2.37274154        1 
H      -4.11970429      -0.64808092      -1.01345304        1 
H      -1.52536787       2.45721096      -0.38088122        1 
C       2.30682961       0.43666694      -1.35658102        6 
H       2.63025603       1.19655097      -2.07153138        1 
H       3.17646768       0.06622648      -0.81319731        1 
H       1.86756882      -0.39363674      -1.91308360        1 
