32
Lattice="0.0 0.0 0.0 0.0 0.0 0.0 0.0 0.0 0.0" Properties=species:S:1:pos:R:3:Z:I:1 pbc="F F F"
C       0.34537467       1.08415125       0.60565162        6 
C       0.42853818      -0.48474225       0.61173754        6 
C      -0.88997355       1.71064762      -0.02141906        6 
C      -0.75174908      -1.18694804      -0.02750789        6 
O      -2.01426732       1.13196613       0.44924477        8 
O      -0.88806970       2.65895912      -0.76405109        8 
O      -1.40168557      -1.94465607       0.88450080        8 
O      -1.05786141      -1.14664801      -1.19334701        8 
C      -2.54216641      -2.67207881       0.39591000        6 
C      -3.25547718       1.59884711      -0.11217245        6 
C       1.64632363       1.45860431      -0.14132810        6 
C       2.85386142       1.23184494       0.79114666        6 
C       2.93080042      -0.32161574       0.79872479        6 
C       1.77673013      -0.70414222      -0.17166134        6 
O       1.77602044       0.39749646      -1.09387628        8 
H       0.35540458       1.45016080       1.63664991        1 
H       0.51087268      -0.85401186       1.63221197        1 
H      -2.24286890      -3.37895254      -0.37982422        1 
H      -3.36787184       2.67226819       0.04378327        1 
H       3.75204036       1.67170863       0.35554047        1 
H       2.70946469       1.66677053       1.78264556        1 
H       3.88086890      -0.67543355       0.39475042        1 
H       2.80326380      -0.75918647       1.79077456        1 
H      -2.94289575      -3.19839352       1.25956606        1 
H      -3.28458094      -1.98554506      -0.01420359        1 
H      -4.03478863       1.05051256       0.41277383        1 
H      -3.28476394       1.37954848      -1.18045692        1 
H       1.59853912       2.41470176      -0.65416700        1 
C       1.95042045      -2.02085146      -0.89565085        6 
H       2.92537235      -2.04400113      -1.38698698        1 
H       1.90419257      -2.85261500      -0.18658739        1 
H       1.17546112      -2.15367277      -1.64970465        1 
