32
Lattice="0.0 0.0 0.0 0.0 0.0 0.0 0.0 0.0 0.0" Properties=species:S:1:pos:R:3:Z:I:1 pbc="F F F"
C      -1.02919863       0.17880507      -0.96465109        6 
C       0.31051463      -0.51930351      -0.63616774        6 
C      -1.37019282       1.50251666      -0.28244402        6 
C       1.57623493       0.31352202      -0.65895236        6 
O      -0.47853163       1.89690304       0.63060285        8 
O      -2.43498768       2.05019724      -0.45868170        8 
O       2.64569469      -0.46078092      -0.35246828        8 
O       1.67473876       1.47094128      -0.97461405        8 
C       3.92876862       0.18966688      -0.39767148        6 
C      -0.83002076       3.05943917       1.39949054        6 
C      -1.98303205      -0.84722569      -0.27383307        6 
C      -1.82135108      -2.28052709      -0.84261095        6 
C      -0.55902156      -2.78133074      -0.07886583        6 
C      -0.08425331      -1.46735145       0.58020354        6 
O      -1.35291778      -0.93007179       1.01380340        8 
H      -1.21090392       0.28943770      -2.03372305        1 
H       0.50537226      -1.19435889      -1.47841716        1 
H       3.95343825       1.03458931       0.29205980        1 
H      -1.00351089       3.91253790       0.74253465        1 
H      -2.69987165      -2.88361027      -0.61087350        1 
H      -1.69666424      -2.28169896      -1.92830434        1 
H      -0.82360943      -3.50090469       0.69872117        1 
H       0.19582857      -3.23262835      -0.72595002        1 
H       4.64901512      -0.56933272      -0.09978569        1 
H       4.14153875       0.54564594      -1.40698680        1 
H       0.02256225       3.24382732       2.04913659        1 
H      -1.72889107       2.86587279       1.98748148        1 
H      -3.00447785      -0.49235449      -0.17039938        1 
C       0.85513071      -1.57998170       1.75513863        6 
H       0.38712642      -2.19065277       2.53101859        1 
H       1.79554671      -2.04226486       1.45555051        1 
H       1.07035948      -0.59417459       2.17206336        1 
