32
Lattice="0.0 0.0 0.0 0.0 0.0 0.0 0.0 0.0 0.0" Properties=species:S:1:pos:R:3:Z:I:1 pbc="F F F"
C       0.23584534       1.02284131       0.66577770        6 
C       0.50143629      -0.53185723       0.57914189        6 
C      -0.90276588       1.57182362      -0.19331273        6 
C      -0.68252390      -1.36770474       0.13117781        6 
O      -2.08827194       1.01962316       0.13852432        8 
O      -0.78647084       2.41914309      -1.04124344        8 
O      -1.51413714      -1.55351094       1.18048619        8 
O      -0.84685020      -1.89695155      -0.93986517        8 
C      -2.72584326      -2.27330302       0.90405274        6 
C      -3.22599528       1.45083821      -0.63305456        6 
C       1.58178905       1.54747956       0.11921782        6 
C       2.72885731       1.21881513       1.10127678        6 
C       2.97096292      -0.28467683       0.78968558        6 
C       1.84304245      -0.57858587      -0.23676181        6 
O       1.81136258       0.65548498      -0.97909926        8 
H       0.03478276       1.31847819       1.69773888        1 
H       0.69070630      -0.87963321       1.59656583        1 
H      -2.50466613      -3.28469976       0.55904984        1 
H      -3.35795488       2.53030062      -0.55041151        1 
H       3.60885506       1.82239506       0.87639287        1 
H       2.45107217       1.40645843       2.14118745        1 
H       3.93879374      -0.43771212       0.30892536        1 
H       2.92279868      -0.92998811       1.66904399        1 
H      -3.26998367      -2.29976509       1.84557124        1 
H      -3.30754452      -1.75430204       0.14020876        1 
H      -4.07880564       0.92702509      -0.20648232        1 
H      -3.09327598       1.18132349      -1.68166984        1 
H       1.53844911       2.56919716      -0.24538195        1 
C       2.09824182      -1.75320074      -1.15390634        6 
H       3.07691063      -1.63437999      -1.62470457        1 
H       2.10058902      -2.68661129      -0.58444057        1 
H       1.33283913      -1.82479387      -1.92308597        1 
