32
Lattice="0.0 0.0 0.0 0.0 0.0 0.0 0.0 0.0 0.0" Properties=species:S:1:pos:R:3:Z:I:1 pbc="F F F"
C      -0.02983942       1.20383713       0.53517013        6 
C       0.44469014      -0.28180642       0.66886237        6 
C      -1.39509426       1.42163888      -0.09736542        6 
C      -0.46207176      -1.33326250       0.06671266        6 
O      -2.36419333       1.02109781       0.75617962        8 
O      -1.60661291       1.92176520      -1.17053228        8 
O      -0.19852316      -2.53769757       0.62669250        8 
O      -1.30028329      -1.17267950      -0.78354734        8 
C      -0.93836159      -3.65427319       0.09948994        6 
C      -3.70288398       1.02582593       0.22750031        6 
C       1.11746023       1.82283572      -0.29686580        6 
C       2.34513031       2.03170991       0.61269056        6 
C       2.82258501       0.56285693       0.79904929        6 
C       1.82456990      -0.21474969      -0.10462145        6 
O       1.53081077       0.73636070      -1.13574509        8 
H      -0.08607713       1.64773106       1.53208326        1 
H       0.61093901      -0.55969331       1.70868044        1 
H      -0.73083314      -3.78162156      -0.96430866        1 
H      -3.99137741       2.03141265      -0.08168558        1 
H       3.09779442       2.63110699       0.09851137        1 
H       2.09576643       2.53176803       1.55101148        1 
H       3.83948102       0.42424854       0.42769650        1 
H       2.79296756       0.22311487       1.83597473        1 
H      -0.59670785      -4.52027901       0.66215916        1 
H      -2.00956914      -3.50300654       0.24003258        1 
H      -4.33799148       0.67743920       1.03946374        1 
H      -3.76175301       0.34913342      -0.62621046        1 
H       0.81521585       2.66560219      -0.91161497        1 
C       2.35196112      -1.49995780      -0.70299021        6 
H       3.28746568      -1.29754178      -1.22869665        1 
H       2.53784056      -2.24040435       0.07733368        1 
H       1.64396420      -1.92030944      -1.42018930        1 
