32
Lattice="0.0 0.0 0.0 0.0 0.0 0.0 0.0 0.0 0.0" Properties=species:S:1:pos:R:3:Z:I:1 pbc="F F F"
C      -0.13329669       1.07982159       0.49768221        6 
C       0.66123799      -0.23820811       0.81044036        6 
C      -1.45596070       0.99988018      -0.24980733        6 
C       0.00725087      -1.60379111       0.74009590        6 
O      -2.46489370       1.39513217       0.57267120        8 
O      -1.63447622       0.65601296      -1.38659758        8 
O      -0.85432704      -1.74920935      -0.27154439        8 
O       0.29270669      -2.49415543       1.50949957        8 
C      -1.45502054      -3.04684131      -0.43043561        6 
C      -3.78417654       1.36917998      -0.00106290        6 
C       0.90798893       1.79702415      -0.41638174        6 
C       2.13694282       2.22920151       0.41808708        6 
C       2.89747467       0.87872851       0.55167936        6 
C       1.91707960      -0.09485708      -0.14792144        6 
O       1.40780942       0.72157305      -1.21124724        8 
H      -0.31447825       1.62937727       1.42035897        1 
H       1.00748940      -0.18632875       1.84218768        1 
H      -2.03287488      -3.31162819       0.45646973        1 
H      -3.84062789       2.03528512      -0.86360905        1 
H       2.72647680       2.96748065      -0.12728034        1 
H       1.85542524       2.66828914       1.37765270        1 
H       3.83881962       0.89999414      -0.00055686        1 
H       3.11395575       0.59488954       1.58291039        1 
H      -2.10053113      -2.95561141      -1.30082004        1 
H      -0.68671806      -3.80353114      -0.59636185        1 
H      -4.45204990       1.70739644       0.78835871        1 
H      -4.04239932       0.35664996      -0.31586775        1 
H       0.48329615       2.56214096      -1.06219704        1 
C       2.51438740      -1.37356267      -0.68737821        6 
H       3.33429668      -1.13748985      -1.36870863        1 
H       2.89952259      -1.98957193       0.12793662        1 
H       1.76646800      -1.94826357      -1.23712327        1 
