32
Lattice="0.0 0.0 0.0 0.0 0.0 0.0 0.0 0.0 0.0" Properties=species:S:1:pos:R:3:Z:I:1 pbc="F F F"
C      -0.49912034       0.95881327       0.65075996        6 
C       0.65857579      -0.09984366       0.74746821        6 
C      -1.91871770       0.42434869       0.55432992        6 
C       0.26602570      -1.48977706       0.24812448        6 
O      -2.37595016       0.40642737      -0.71080652        8 
O      -2.57151793       0.10010773       1.51556215        8 
O       1.34321225      -2.26618036       0.02051054        8 
O      -0.85889799      -1.92110471       0.19972609        8 
C       1.07007915      -3.63396115      -0.34199427        6 
C      -3.66405099      -0.20407957      -0.90201846        6 
C       0.00501134       1.88395798      -0.49353057        6 
C       0.94224676       2.92083762       0.14095489        6 
C       2.09639557       1.98640796       0.59578475        6 
C       1.74430170       0.63956885      -0.12384278        6 
O       0.92365086       1.06549823      -1.23028291        8 
H      -0.50922821       1.51337180       1.59102526        1 
H       0.99015176      -0.23624891       1.77954457        1 
H       0.48932551      -3.67377984      -1.26434699        1 
H      -3.62424298      -1.24840714      -0.58932849        1 
H       1.28082581       3.63288605      -0.61395246        1 
H       0.47865225       3.47759427       0.95800921        1 
H       3.06882886       2.35153934       0.26378615        1 
H       2.14307721       1.86495650       1.68051092        1 
H       2.04570386      -4.09410827      -0.48219538        1 
H       0.51650220      -4.13514773       0.45323988        1 
H      -3.86537470      -0.12838414      -1.96857224        1 
H      -4.42866981       0.32071832      -0.32728509        1 
H      -0.76901782       2.25790003      -1.15629719        1 
C       2.96543948      -0.10012713      -0.62999600        6 
H       3.61354111       0.60827915      -1.15091412        1 
H       3.52318000      -0.53780329       0.20049917        1 
H       2.69681612      -0.89745704      -1.31778557        1 
