32
Lattice="0.0 0.0 0.0 0.0 0.0 0.0 0.0 0.0 0.0" Properties=species:S:1:pos:R:3:Z:I:1 pbc="F F F"
C      -0.09576096       0.70589740       0.83899658        6 
C       0.60564212      -0.65038226       0.50673541        6 
C      -1.32226278       0.99075766      -0.03030656        6 
C      -0.30411936      -1.79307484       0.08993697        6 
O      -1.51769453       2.31642067      -0.17876561        8 
O      -2.09150464       0.16762048      -0.46055170        8 
O      -1.20479731      -2.01609948       1.07385091        8 
O      -0.17697916      -2.51408320      -0.86648220        8 
C      -2.20376468      -3.01066439       0.79365749        6 
C      -2.67912688       2.70163783      -0.93847782        6 
C       1.04828366       1.67162125       0.44332838        6 
C       2.31472585       1.43197792       1.30010344        6 
C       2.93610873       0.19230486       0.59531032        6 
C       1.80935377      -0.18655143      -0.39658396        6 
O       1.39563899       1.12971734      -0.84028805        8 
H      -0.40480397       0.77398952       1.88411882        1 
H       1.01928227      -1.02290509       1.44934184        1 
H      -1.74105870      -3.97568253       0.58195992        1 
H      -2.61940523       2.29976454      -1.95062109        1 
H       2.97734164       2.29683156       1.25355939        1 
H       2.07216522       1.25516629       2.35091676        1 
H       3.83231651       0.46551331       0.03506431        1 
H       3.19126917      -0.62091349       1.27769491        1 
H      -2.81705542      -3.06803002       1.69056350        1 
H      -2.80568064      -2.69662840      -0.06063766        1 
H      -2.66434817       3.78904913      -0.95589682        1 
H      -3.58753516       2.33508420      -0.45806014        1 
H       0.74331445       2.70688337       0.33595344        1 
C       2.22860768      -1.02991712      -1.57712699        6 
H       3.07236357      -0.54577427      -2.07558980        1 
H       2.53638918      -2.02391699      -1.24771678        1 
H       1.41211493      -1.15348271      -2.28580872        1 
