32
Lattice="0.0 0.0 0.0 0.0 0.0 0.0 0.0 0.0 0.0" Properties=species:S:1:pos:R:3:Z:I:1 pbc="F F F"
C      -0.88138608      -0.31667114      -0.79017901        6 
C       0.64986259      -0.18517598      -0.64104352        6 
C      -1.67798127       0.61965314       0.10968182        6 
C       1.17785088       1.23691558      -0.59732746        6 
O      -2.99648803       0.50453553      -0.18061505        8 
O      -1.24711705       1.34391326       0.96651760        8 
O       2.45704746       1.28453829      -0.17058367        8 
O       0.57370840       2.20387354      -0.98683412        8 
C       3.06491909       2.59009121      -0.15211254        6 
C      -3.88806832       1.30343891       0.61829915        6 
C      -1.05560305      -1.74088586      -0.18477405        6 
C      -0.25403555      -2.80236576      -0.98207673        6 
C       1.18026279      -2.60141091      -0.40635534        6 
C       0.98539324      -1.31206235       0.42646697        6 
O      -0.30238249      -1.59289868       1.02365011        8 
H      -1.23628576      -0.23005383      -1.81654326        1 
H       1.08313939      -0.52932406      -1.58884064        1 
H       2.49194864       3.26497912       0.48490958        1 
H      -3.77912250       1.05523359       1.67516456        1 
H      -0.63420208      -3.80375709      -0.77719181        1 
H      -0.31339681      -2.63734171      -2.06074989        1 
H       1.45780347      -3.42270180       0.25742155        1 
H       1.95179553      -2.50322112      -1.17275663        1 
H       4.06447144       2.43761926       0.24925770        1 
H       3.11419694       3.00314664      -1.16092979        1 
H      -4.88893999       1.06027959       0.26770348        1 
H      -3.67845687       2.36456471       0.47465206        1 
H      -2.08479033      -2.00518479       0.04520523        1 
C       1.99756435      -1.03629084       1.51007049        6 
H       2.02936193      -1.88893249       2.19293116        1 
H       2.98897261      -0.88253456       1.08434972        1 
H       1.72321789      -0.14441640       2.07473660        1 
