32
Lattice="0.0 0.0 0.0 0.0 0.0 0.0 0.0 0.0 0.0" Properties=species:S:1:pos:R:3:Z:I:1 pbc="F F F"
C      -0.77085408       0.71030100       0.63424503        6 
C       0.63030513       0.03779062       0.63888275        6 
C      -1.82070178       0.01956702      -0.22328576        6 
C       0.62583719      -1.46765743       0.45371095        6 
O      -2.99738869      -0.03804377       0.44501512        8 
O      -1.67592691      -0.37700301      -1.34935725        8 
O       1.88369524      -1.95269668       0.38019636        8 
O      -0.35163541      -2.17324205       0.46160812        8 
C       2.00201386      -3.38249901       0.25200073        6 
C      -4.07734439      -0.68148065      -0.25606961        6 
C      -0.39854313       2.06178755      -0.04224180        6 
C       0.55568250       2.87290909       0.87033798        6 
C       1.91813779       2.17740900       0.57767742        6 
C       1.46771829       0.99233764      -0.31396502        6 
O       0.44779622       1.62847698      -1.10591964        8 
H      -1.17058299       0.84136943       1.63830898        1 
H       1.04979822       0.14373988       1.64501219        1 
H       1.48892250      -3.72609613      -0.64701594        1 
H      -4.32160248      -0.13635015      -1.16946017        1 
H       0.56881407       3.92273158       0.57460687        1 
H       0.26177534       2.82468701       1.92129056        1 
H       2.57804059       2.83000585       0.00249624        1 
H       2.45084984       1.85858190       1.47572991        1 
H       3.06975074      -3.57920474       0.18398963        1 
H       1.57366496      -3.88048580       1.12326016        1 
H      -4.91887408      -0.67051089       0.43346868        1 
H      -3.80107736      -1.70540627      -0.51174112        1 
H      -1.24608439       2.61369035      -0.44392663        1 
C       2.51980690       0.39362010      -1.21675900        6 
H       2.93814971       1.18354263      -1.84499728        1 
H       3.32043261      -0.05935728      -0.63189593        1 
H       2.08634756      -0.37154304      -1.86175638        1 
