32
Lattice="0.0 0.0 0.0 0.0 0.0 0.0 0.0 0.0 0.0" Properties=species:S:1:pos:R:3:Z:I:1 pbc="F F F"
C       0.33695445       1.07308139       0.63359313        6 
C       0.45040511      -0.49761036       0.60917356        6 
C      -0.88017467       1.66445190      -0.06196411        6 
C      -0.74502281      -1.19702473      -0.00220764        6 
O      -2.01745119       1.15530782       0.46031232        8 
O      -0.85925604       2.50917532      -0.91884983        8 
O      -1.42934372      -1.88001038       0.94199459        8 
O      -1.04491790      -1.20218876      -1.17073753        8 
C      -2.61038164      -2.56248042       0.48576572        6 
C      -3.24489050       1.55775663      -0.17645475        6 
C       1.65282363       1.47617016      -0.06706376        6 
C       2.84358400       1.20931402       0.87809604        6 
C       2.94685519      -0.34029441       0.79283729        6 
C       1.79284832      -0.68258971      -0.19063523        6 
O       1.79518858       0.45807327      -1.06386058        8 
H       0.29376045       1.42205501       1.66876310        1 
H       0.55689168      -0.87470147       1.62491870        1 
H      -2.35124672      -3.33128758      -0.24402295        1 
H      -3.35367541       2.64248865      -0.15147422        1 
H       3.74500363       1.69000642       0.49576722        1 
H       2.66693260       1.57912974       1.89079263        1 
H       3.89800309      -0.65085103       0.35691645        1 
H       2.83833043      -0.84086226       1.75694572        1 
H      -3.04958860      -3.01018286       1.37456393        1 
H      -3.30336088      -1.85477331       0.02809254        1 
H      -4.03766255       1.07945426       0.39495606        1 
H      -3.25471398       1.21308144      -1.21167977        1 
H       1.61706047       2.45254924      -0.54123572        1 
C       1.96636352      -1.96647610      -0.97109448        6 
H       2.93870925      -1.96413448      -1.46824782        1 
H       1.92815720      -2.82776410      -0.29759246        1 
H       1.18660537      -2.07055940      -1.72434038        1 
