32
Lattice="0.0 0.0 0.0 0.0 0.0 0.0 0.0 0.0 0.0" Properties=species:S:1:pos:R:3:Z:I:1 pbc="F F F"
C       0.06258878       0.98571255       0.48744139        6 
C       0.61830490      -0.47761963       0.66238571        6 
C      -1.25809026       1.14358279      -0.24434311        6 
C      -0.27608583      -1.65091218       0.28665900        6 
O      -2.24051052       1.49062532       0.61897130        8 
O      -1.41926539       1.06597826      -1.43597760        8 
O      -1.58338432      -1.33682906       0.35929373        8 
O       0.11532296      -2.76926418       0.06102664        8 
C      -2.51431035      -2.39400647       0.06294731        6 
C      -3.54786290       1.64625690       0.04348671        6 
C       1.21743202       1.63649103      -0.32355526        6 
C       2.40838582       1.90075889       0.61867869        6 
C       2.94826284       0.45627923       0.81249426        6 
C       1.99573479      -0.37479999      -0.09900863        6 
O       1.68372245       0.56471264      -1.14270389        8 
H      -0.05633375       1.45440777       1.46366688        1 
H       0.81121342      -0.65230585       1.72563133        1 
H      -2.35161028      -3.24358039       0.72723494        1 
H      -3.55158693       2.44783434      -0.69710536        1 
H       3.14391404       2.53765735       0.12480767        1 
H       2.11013520       2.38784387       1.54932017        1 
H       3.97298581       0.36417862       0.44899998        1 
H       2.92952700       0.11911853       1.85070931        1 
H      -3.50008090      -1.96337962       0.22363983        1 
H      -2.40005381      -2.71494734      -0.97313951        1 
H      -4.20610692       1.89031039       0.87472635        1 
H      -3.86324004       0.71810784      -0.43660493        1 
H       0.90908742       2.46892361      -0.95134469        1 
C       2.62450187      -1.61691307      -0.69144686        6 
H       3.55779190      -1.33071649      -1.18214518        1 
H       2.84292288      -2.35067809       0.08602017        1 
H       1.97038786      -2.08718399      -1.42254831        1 
