32
Lattice="0.0 0.0 0.0 0.0 0.0 0.0 0.0 0.0 0.0" Properties=species:S:1:pos:R:3:Z:I:1 pbc="F F F"
C       0.25826884       0.90024710       0.82143584        6 
C       0.55349953      -0.63421451       0.66260518        6 
C      -1.09502510       1.42468022       0.37398706        6 
C      -0.59080985      -1.57719527       0.32189864        6 
O      -1.28690549       1.28623512      -0.95092086        8 
O      -1.88795739       1.95667092       1.11337362        8 
O      -1.79088367      -1.05153258       0.62531101        8 
O      -0.44926173      -2.71416429      -0.05761333        8 
C      -2.93878544      -1.89607828       0.42529420        6 
C      -2.55542143       1.73233679      -1.45492355        6 
C       1.41942514       1.49486966      -0.02617508        6 
C       2.74756906       1.32990771       0.74406934        6 
C       3.02192409      -0.18572261       0.53137852        6 
C       1.79338936      -0.62201150      -0.31653851        6 
O       1.54680761       0.56137352      -1.09879631        8 
H       0.33793794       1.19566124       1.86657437        1 
H       0.88485246      -1.01900507       1.63232903        1 
H      -2.85608165      -2.80075694       1.02901535        1 
H      -3.36772669       1.18560081      -0.97222673        1 
H       3.52719839       1.94369048       0.29078203        1 
H       2.65976554       1.61592516       1.79413111        1 
H       3.93418505      -0.34603919      -0.04567155        1 
H       3.10978203      -0.74792126       1.46325677        1 
H      -3.79114187      -1.29892595       0.74127746        1 
H      -3.02659859      -2.17156799      -0.62672439        1 
H      -2.53313481       1.52271122      -2.52220297        1 
H      -2.68857708       2.80058400      -1.27630171        1 
H       1.22468384       2.48863468      -0.42359386        1 
C       2.03144033      -1.80564142      -1.22587947        6 
H       2.91352658      -1.60456061      -1.83878863        1 
H       2.20016239      -2.71413993      -0.64637525        1 
H       1.17905800      -1.98057651      -1.88042985        1 
