32
Lattice="0.0 0.0 0.0 0.0 0.0 0.0 0.0 0.0 0.0" Properties=species:S:1:pos:R:3:Z:I:1 pbc="F F F"
C      -0.20790832       0.83142375       0.66854781        6 
C       0.70993040      -0.43876660       0.58313757        6 
C      -1.63834991       0.66771223       0.18158647        6 
C       0.05720591      -1.65099953      -0.06227610        6 
O      -2.18341702       1.86471248      -0.11825737        8 
O      -2.25057097      -0.36900658       0.11959046        8 
O      -0.32952543      -2.52869817       0.88895606        8 
O      -0.06036858      -1.85277542      -1.24387190        8 
C      -1.07720454      -3.66354467       0.41732105        6 
C      -3.55753656       1.84153089      -0.55279090        6 
C       0.64190006       1.87729635      -0.10692501        6 
C       1.81364775       2.33248070       0.78564065        6 
C       2.71614602       1.06910595       0.74337156        6 
C       1.92894373       0.13569264      -0.22090842        6 
O       1.28893232       1.08244925      -1.10309668        8 
H      -0.31633922       1.13716523       1.71403462        1 
H       1.01616505      -0.74097602       1.58384335        1 
H      -0.48849083      -4.24327173      -0.29534938        1 
H      -3.65815291       1.23337814      -1.45255723        1 
H       2.31239268       3.19246899       0.33615106        1 
H       1.49542855       2.61225820       1.79225747        1 
H       3.69599929       1.29233406       0.31842097        1 
H       2.87203716       0.61383612       1.72344567        1 
H      -1.29860395      -4.25472417       1.30348868        1 
H      -1.99749156      -3.32474441      -0.06048870        1 
H      -3.81245046       2.87857533      -0.75877284        1 
H      -4.19834498       1.43479476       0.23092997        1 
H       0.06291546       2.66661022      -0.57562372        1 
C       2.78528067      -0.84197561      -0.99607072        6 
H       3.61103485      -0.30882780      -1.47249439        1 
H       3.20736495      -1.59020504      -0.31831594        1 
H       2.20166762      -1.35145816      -1.76060712        1 
