32
Lattice="0.0 0.0 0.0 0.0 0.0 0.0 0.0 0.0 0.0" Properties=species:S:1:pos:R:3:Z:I:1 pbc="F F F"
C      -0.54041588       0.80211354       0.46528559        6 
C       0.71932165      -0.03341035       0.86339508        6 
C      -1.82783801       0.07973518       0.12621214        6 
C       0.63648425      -1.54009743       0.65361645        6 
O      -2.86725822       0.92906798       0.32466577        8 
O      -1.97270850      -1.03667060      -0.30145206        8 
O       0.64214493      -1.90170054      -0.63326711        8 
O       0.64817303      -2.32439223       1.57539850        8 
C       0.43456669      -3.29768418      -0.90198236        6 
C      -4.16936501       0.42454851      -0.02815683        6 
C       0.01720616       1.68123672      -0.70869426        6 
C       0.77357233       2.86723280      -0.08297524        6 
C       1.99799512       2.12140585       0.51882109        6 
C       1.80626281       0.67223636      -0.02647242        6 
O       1.07562106       0.89579079      -1.24940673        8 
H      -0.80234795       1.46148379       1.29361992        1 
H       0.93368819       0.09092430       1.92384047        1 
H      -0.55311755      -3.59569661      -0.54722914        1 
H      -4.20486068       0.16629023      -1.08775486        1 
H       1.07892516       3.56340373      -0.86604434        1 
H       0.18267784       3.41534163       0.65327509        1 
H       2.93940341       2.53615292       0.15548642        1 
H       2.02319219       2.14765536       1.61028431        1 
H       0.49466091      -3.39399573      -1.98380545        1 
H       1.19900117      -3.90550671      -0.41530375        1 
H      -4.86257254       1.23307472       0.19294205        1 
H      -4.40845677      -0.45951554       0.56467405        1 
H      -0.70624276       1.92232748      -1.48445234        1 
C       3.09262104      -0.08216840      -0.27775272        6 
H       3.75311707       0.51317234      -0.91178620        1 
H       3.60497466      -0.27252734       0.66943637        1 
H       2.90114693      -1.03380221      -0.77142450        1 
