32
Lattice="0.0 0.0 0.0 0.0 0.0 0.0 0.0 0.0 0.0" Properties=species:S:1:pos:R:3:Z:I:1 pbc="F F F"
C      -1.00490613      -0.14007344      -0.98476380        6 
C       0.48082174      -0.35802823      -0.61166816        6 
C      -1.81737406       0.99500016      -0.36692465        6 
C       1.44907780       0.80724409      -0.53888678        6 
O      -1.20829736       1.62930375       0.63341771        8 
O      -2.97398947       1.17899966      -0.67687886        8 
O       2.71507712       0.30622832      -0.56706393        8 
O       1.22256037       1.98640986      -0.48102926        8 
C       3.77574575       1.27394920      -0.48399365        6 
C      -1.98878268       2.60872021       1.33831473        6 
C      -1.58253938      -1.42463372      -0.29955636        6 
C      -0.93918002      -2.72585498      -0.84728264        6 
C       0.39559210      -2.77831983      -0.04318485        6 
C       0.38567114      -1.37868607       0.60873237        6 
O      -0.99897352      -1.29174872       1.00283400        8 
H      -1.17294314      -0.12159355      -2.06164225        1 
H       0.90500860      -0.93533031      -1.43720246        1 
H       3.70262067       1.84354893       0.44398023        1 
H      -2.34065422       3.38143850       0.65350630        1 
H      -1.57559980      -3.58462358      -0.63099035        1 
H      -0.78946172      -2.68787883      -1.92875455        1 
H       0.35784955      -3.54298803       0.73564529        1 
H       1.27669952      -2.95609074      -0.66254473        1 
H       4.69792378       0.69717914      -0.50747260        1 
H       3.73300657       1.96249086      -1.32948289        1 
H      -1.31525847       3.03233419       2.07961648        1 
H      -2.84570964       2.13453645       1.82018752        1 
H      -2.66684859      -1.42969148      -0.22828710        1 
C       1.28403006      -1.14613085       1.79810685        6 
H       1.03838029      -1.86034279       2.58715474        1 
H       2.33111768      -1.27278330       1.51943927        1 
H       1.14409756      -0.13581152       2.18965119        1 
