32
Lattice="0.0 0.0 0.0 0.0 0.0 0.0 0.0 0.0 0.0" Properties=species:S:1:pos:R:3:Z:I:1 pbc="F F F"
C       0.29289595       1.12379856       0.57637456        6 
C       0.59700811      -0.39504550       0.85549163        6 
C      -1.12780926       1.61240081       0.38172596        6 
C      -0.57442923      -1.35522197       0.70502421        6 
O      -1.83537183       0.89031589      -0.50201258        8 
O      -1.55972946       2.60010427       0.92987704        8 
O      -0.85571166      -1.68485029      -0.56203890        8 
O      -1.15443653      -1.82359354       1.65887158        8 
C      -1.99956132      -2.53014522      -0.75787841        6 
C      -3.18035571       1.33580138      -0.75911901        6 
C       1.22114999       1.39557903      -0.66043215        6 
C       2.64098921       1.64718921      -0.12393810        6 
C       2.99908338       0.21798090       0.37201661        6 
C       1.78803828      -0.62554950      -0.13763338        6 
O       1.34922626       0.12243442      -1.28908903        8 
H       0.64451677       1.70973350       1.42419532        1 
H       0.91487734      -0.51473322       1.89047990        1 
H      -2.89615925      -2.04537217      -0.36755245        1 
H      -3.77359219       1.29948326       0.15571797        1 
H       3.29578539       1.95784872      -0.93968707        1 
H       2.67682827       2.40817752       0.65766111        1 
H       3.92198569      -0.14497537      -0.08204573        1 
H       3.11387180       0.15393927       1.45612608        1 
H      -2.07583975      -2.66592355      -1.83458386        1 
H      -1.86505976      -3.48984696      -0.25628269        1 
H      -3.57426547       0.64497673      -1.50145326        1 
H      -3.17785640       2.35555392      -1.14635091        1 
H       0.83610523       2.12396502      -1.37112627        1 
C       2.13946641      -2.05241698      -0.50003183        6 
H       2.98842634      -2.05859912      -1.18726416        1 
H       2.42531486      -2.60621468       0.39889161        1 
H       1.30270530      -2.55975300      -0.97623411        1 
