32
Lattice="0.0 0.0 0.0 0.0 0.0 0.0 0.0 0.0 0.0" Properties=species:S:1:pos:R:3:Z:I:1 pbc="F F F"
C      -0.07455521       0.82895976       0.62841524        6 
C       0.68574069      -0.53615370       0.60932365        6 
C      -1.34659313       0.86876156      -0.19104284        6 
C      -0.15941609      -1.72690465       0.18542840        6 
O      -2.16176371       1.84757249       0.26512689        8 
O      -1.60117309       0.19000928      -1.15361308        8 
O      -1.26730228      -1.77749701       0.96624753        8 
O       0.10636832      -2.56717857      -0.63247953        8 
C      -2.21456150      -2.80985250       0.63911944        6 
C      -3.37785873       2.04956342      -0.47995278        6 
C       0.98480534       1.74825491      -0.05002022        6 
C       2.17825920       1.95367362       0.90809206        6 
C       2.91035994       0.58976717       0.75911123        6 
C       1.97389563      -0.17668985      -0.21784330        6 
O       1.51204427       0.90017491      -1.06606114        8 
H      -0.30907159       1.16272527       1.63809304        1 
H       0.97580208      -0.77631665       1.63645744        1 
H      -1.76081090      -3.79629681       0.74550317        1 
H      -3.15336371       2.29744372      -1.51843451        1 
H       2.80044524       2.78122334       0.56451129        1 
H       1.85948030       2.17092946       1.92965023        1 
H       3.89009351       0.71720676       0.29547096        1 
H       3.05014022       0.06429758       1.70569129        1 
H      -3.03336174      -2.68708654       1.34503789        1 
H      -2.56599216      -2.68039583      -0.38563559        1 
H      -3.88593327       2.87580283       0.01232995        1 
H      -3.99385635       1.14941424      -0.45249814        1 
H       0.57562667       2.65406001      -0.49354957        1 
C       2.65123783      -1.24400837      -1.04628267        6 
H       3.52959858      -0.81173231      -1.53185863        1 
H       2.97581030      -2.07189759      -0.41140454        1 
H       1.97619616      -1.64273769      -1.79903734        1 
