32
Lattice="0.0 0.0 0.0 0.0 0.0 0.0 0.0 0.0 0.0" Properties=species:S:1:pos:R:3:Z:I:1 pbc="F F F"
C      -0.43793121       0.89830390       0.38667181        6 
C       0.64657289      -0.12663465       0.86679694        6 
C      -1.81504483       0.40447735      -0.01285901        6 
C       0.38718508      -1.61250399       0.66797267        6 
O      -2.75060771       1.23735142       0.51534550        8 
O      -2.10221035      -0.52576454      -0.72064958        8 
O       0.24969563      -1.96363213      -0.61116605        8 
O       0.41027940      -2.40321981       1.58614011        8 
C      -0.04139440      -3.34579106      -0.87304248        6 
C      -4.11707278       0.94772915       0.16559137        6 
C       0.31985035       1.63341822      -0.77561590        6 
C       1.22238739       2.70305400      -0.13316013        6 
C       2.27605120       1.79024691       0.55793566        6 
C       1.88294316       0.37572213       0.03156847        6 
O       1.26627055       0.67327692      -1.23424871        8 
H      -0.61336435       1.60743753       1.19411826        1 
H       0.82033405      -0.01401486       1.93585331        1 
H      -0.97873786      -3.62951777      -0.39279926        1 
H      -4.25520888       1.00364198      -0.91546345        1 
H       1.68134238       3.31593823      -0.91070710        1 
H       0.69076074       3.36208320       0.55536398        1 
H       3.29028005       2.03772968       0.24086193        1 
H       2.24533425       1.84428027       1.64809568        1 
H      -0.13156566      -3.41832079      -1.95427405        1 
H       0.76267919      -3.98620848      -0.50593100        1 
H      -4.71192201       1.70705201       0.66836296        1 
H      -4.39591781      -0.04941921       0.50977166        1 
H      -0.30711688       1.96004444      -1.60248215        1 
C       3.03791228      -0.58764803      -0.12985985        6 
H       3.82527123      -0.12612511      -0.72956045        1 
H       3.45399392      -0.84432945       0.84793008        1 
H       2.71886640      -1.50354119      -0.62661766        1 
