32
Lattice="0.0 0.0 0.0 0.0 0.0 0.0 0.0 0.0 0.0" Properties=species:S:1:pos:R:3:Z:I:1 pbc="F F F"
C       0.15532642       0.93914762       0.37875725        6 
C       0.53627225      -0.56802197       0.64616769        6 
C      -1.24203844       1.26126046      -0.10830678        6 
C      -0.37389623      -1.60556214      -0.01539259        6 
O      -2.08964932       1.37642179       0.93647010        8 
O      -1.55142451       1.51139298      -1.24732507        8 
O      -1.67345014      -1.31115290       0.20113253        8 
O      -0.02775487      -2.60124160      -0.59740002        8 
C      -2.63661292      -2.21104647      -0.37859373        6 
C      -3.46005438       1.65150045       0.60688356        6 
C       1.29669179       1.37814772      -0.58459916        6 
C       2.47851489       1.81568449       0.29102519        6 
C       2.83771188       0.44986844       0.93823251        6 
C       1.99841497      -0.56322390       0.08701353        6 
O       1.78296425       0.15283225      -1.14694480        8 
H       0.24636083       1.47052796       1.32815522        1 
H       0.49915465      -0.77941034       1.71863841        1 
H      -2.45870917      -3.23258385      -0.04107843        1 
H      -3.54752726       2.60375779       0.08126561        1 
H       3.29157044       2.18421200      -0.33654924        1 
H       2.21916484       2.59092116       1.01527269        1 
H       3.90058445       0.22418591       0.84942302        1 
H       2.57722406       0.39935886       1.99840957        1 
H      -3.60612398      -1.85633173      -0.03556922        1 
H      -2.57766397      -2.17248254      -1.46719031        1 
H      -3.98706667       1.68859554       1.55793230        1 
H      -3.86424790       0.85744975      -0.02347458        1 
H       0.98208883       2.04762052      -1.38025329        1 
C       2.71539291      -1.87625363      -0.15170100        6 
H       3.73149709      -1.66818935      -0.49521979        1 
H       2.77820917      -2.44229312       0.78196660        1 
H       2.20263934      -2.48726604      -0.88754110        1 
