32
Lattice="0.0 0.0 0.0 0.0 0.0 0.0 0.0 0.0 0.0" Properties=species:S:1:pos:R:3:Z:I:1 pbc="F F F"
C      -0.49722949       0.86753342       0.93249311        6 
C       0.66308169      -0.13238674       0.61823732        6 
C      -1.91676339       0.51464121       0.50993656        6 
C       0.30131967      -1.55566086       0.24500562        6 
O      -2.06658998       0.40746733      -0.81205089        8 
O      -2.83551295       0.47068596       1.29858754        8 
O       1.19839350      -2.40298969       0.81166399        8 
O      -0.59133443      -1.93731599      -0.46790549        8 
C       1.02803138      -3.79851663       0.50142754        6 
C      -3.37456771       0.04294557      -1.28063033        6 
C       0.01852658       2.10854750       0.13729352        6 
C       1.29232637       2.67080076       0.81409786        6 
C       2.37161199       1.67222329       0.30340778        6 
C       1.49875965       0.65443728      -0.47318635        6 
O       0.51877698       1.51862873      -1.06429343        8 
H      -0.55721827       1.06164634       2.00208370        1 
H       1.28061796      -0.22813857       1.51073319        1 
H       1.13577505      -3.96771753      -0.57127735        1 
H      -3.64242904      -0.94659469      -0.90680521        1 
H       1.49071482       3.68597122       0.46794463        1 
H       1.20623345       2.69837925       1.90228501        1 
H       3.06098768       2.15619521      -0.39116373        1 
H       2.95748048       1.21138385       1.10061222        1 
H       1.81149767      -4.31520263       1.05146685        1 
H       0.04296862      -4.14224799       0.82032249        1 
H      -3.29663189       0.02961973      -2.36538348        1 
H      -4.12037954       0.76984514      -0.95450491        1 
H      -0.74921299       2.84092155      -0.10168389        1 
C       2.19859165      -0.17364470      -1.52543067        6 
H       2.71391141       0.48203531      -2.23024030        1 
H       2.93526352      -0.83335690      -1.06093099        1 
H       1.47912963      -0.78044710      -2.07815076        1 
