32
Lattice="0.0 0.0 0.0 0.0 0.0 0.0 0.0 0.0 0.0" Properties=species:S:1:pos:R:3:Z:I:1 pbc="F F F"
C      -0.43597107       1.05892779       0.50709014        6 
C       0.54379172      -0.15856283       0.65521295        6 
C      -1.75939523       0.79058614      -0.19523755        6 
C      -0.00731325      -1.50707667       0.21952911        6 
O      -2.73541087       0.56923891       0.71193750        8 
O      -1.94296502       0.83144459      -1.38418668        8 
O       0.93704869      -2.46508868       0.32993374        8 
O      -1.14970882      -1.75163141      -0.07717213        8 
C       0.51931822      -3.80637266       0.01216041        6 
C      -4.00559138       0.16837465       0.16973147        6 
C       0.43478829       2.04384204      -0.31343686        6 
C       1.50229492       2.66902883       0.60568551        6 
C       2.46827515       1.46375202       0.78772279        6 
C       1.81242951       0.38238627      -0.12134562        6 
O       1.20360308       1.17659325      -1.15101256        8 
H      -0.67381808       1.45769395       1.49359690        1 
H       0.80380863      -0.30343336       1.70661884        1 
H       0.15260108      -3.85860491      -1.01387893        1 
H      -4.40417659       0.93971115      -0.49122180        1 
H       1.99618381       3.50026963       0.09994020        1 
H       1.08616207       3.04083837       1.54438162        1 
H       3.46859139       1.69433222       0.41807713        1 
H       2.56135519       1.13442951       1.82450013        1 
H       1.40802885      -4.42158783       0.13412622        1 
H      -0.27009474      -4.13032252       0.69222472        1 
H      -4.65782737       0.02573212       1.02892379        1 
H      -3.88960321      -0.76360246      -0.38558393        1 
H      -0.13436743       2.73342415      -0.93114639        1 
C       2.78735155      -0.59479780      -0.74170121        6 
H       3.57031917      -0.02837229      -1.25116642        1 
H       3.24568624      -1.22813372       0.01891919        1 
H       2.29538120      -1.23730429      -1.47166849        1 
