32
Lattice="0.0 0.0 0.0 0.0 0.0 0.0 0.0 0.0 0.0" Properties=species:S:1:pos:R:3:Z:I:1 pbc="F F F"
C      -0.87048432      -0.35390786      -0.81071581        6 
C       0.66684748      -0.22605841      -0.68401574        6 
C      -1.63074027       0.62688377       0.07629971        6 
C       1.16809367       1.20882062      -0.69638335        6 
O      -2.96029759       0.40653274      -0.03955762        8 
O      -1.15952713       1.48493524       0.77578947        8 
O       2.30452280       1.38670781      -0.00038315        8 
O       0.64130917       2.07867673      -1.34541129        8 
C       2.84023654       2.72443852      -0.00639542        6 
C      -3.81231967       1.25220990       0.75515534        6 
C      -1.05044021      -1.75616227      -0.16562730        6 
C      -0.26924591      -2.84630076      -0.94110543        6 
C       1.17381065      -2.63896422      -0.39299451        6 
C       1.00310814      -1.32550743       0.40802584        6 
O      -0.28101151      -1.57699527       1.03046385        8 
H      -1.23966080      -0.28232422      -1.83344199        1 
H       1.08545964      -0.59266914      -1.62957840        1 
H       2.10573871       3.42393172       0.39418860        1 
H      -3.62242285       1.09009243       1.81745984        1 
H      -0.65318797      -3.83846922      -0.70093773        1 
H      -0.34364073      -2.71283073      -2.02314439        1 
H       1.45577955      -3.44355304       0.28910939        1 
H       1.93428216      -2.56959811      -1.17363626        1 
H       3.72196519       2.68387834       0.62953782        1 
H       3.10953989       3.02413655      -1.02033429        1 
H      -4.82913860       0.96185993       0.49950339        1 
H      -3.63915588       2.30178233       0.51383187        1 
H      -2.07873879      -2.00228730       0.08464265        1 
C       2.03566650      -1.04781504       1.47242079        6 
H       2.07922976      -1.89999367       2.15540153        1 
H       3.02015537      -0.89834271       1.02808704        1 
H       1.77809668      -0.15257017       2.03754702        1 
