32
Lattice="0.0 0.0 0.0 0.0 0.0 0.0 0.0 0.0 0.0" Properties=species:S:1:pos:R:3:Z:I:1 pbc="F F F"
C      -0.15910772       0.96719187       0.66188716        6 
C       0.76318678      -0.28160206       0.84401411        6 
C      -1.63850242       0.66379656       0.51920725        6 
C       0.16705453      -1.64061998       0.52670894        6 
O      -2.25182181       1.50841459      -0.33188245        8 
O      -2.21916192      -0.19287169       1.13991920        8 
O      -0.51768104      -1.65085662      -0.63033655        8 
O       0.36506739      -2.62529500       1.19731745        8 
C      -1.12704256      -2.90089174      -0.99457056        6 
C      -3.67077408       1.31750135      -0.49478717        6 
C       0.55544238       1.73283693      -0.48730225        6 
C       1.76611785       2.47708871       0.10900354        6 
C       2.70803968       1.28029631       0.42658004        6 
C       1.91597615       0.07740665      -0.16426456        6 
O       1.18126733       0.68961348      -1.24133766        8 
H      -0.11557519       1.56364577       1.57997312        1 
H       1.14213221      -0.36218651       1.86077346        1 
H      -1.84230549      -3.20708822      -0.22974629        1 
H      -3.87575894       0.31011718      -0.85908403        1 
H       2.20480797       3.13755272      -0.64036976        1 
H       1.50986910       3.07792184       0.98437185        1 
H       3.66727738       1.37948526      -0.08390900        1 
H       2.90768336       1.15662181       1.49294376        1 
H      -1.63093123      -2.71158337      -1.93997548        1 
H      -0.36916183      -3.67705644      -1.11285745        1 
H      -3.98041991       2.06132984      -1.22540854        1 
H      -4.18817431       1.46905191       0.45365878        1 
H      -0.10287438       2.31195769      -1.12685227        1 
C       2.75918736      -1.07172007      -0.66905218        6 
H       3.52029037      -0.69892077      -1.35801897        1 
H       3.25742460      -1.57354910       0.16394179        1 
H       2.14605945      -1.80398051      -1.19637543        1 
