32
Lattice="0.0 0.0 0.0 0.0 0.0 0.0 0.0 0.0 0.0" Properties=species:S:1:pos:R:3:Z:I:1 pbc="F F F"
C      -0.96873515       0.19699966       0.92953746        6 
C       0.54727903       0.34353900       0.58107239        6 
C      -1.84136875      -0.95649545       0.45879021        6 
C       1.42100529      -0.85755870       0.26091107        6 
O      -1.46695093      -1.49642025      -0.69674899        8 
O      -2.86847682      -1.23975743       1.03820709        8 
O       2.60787943      -0.69930386       0.91376332        8 
O       1.20702011      -1.79541996      -0.45988118        8 
C       3.59552825      -1.71677018       0.67273623        6 
C      -2.31407017      -2.52563906      -1.23482899        6 
C      -1.50575221       1.47212883       0.19714708        6 
C      -0.93329361       2.75807337       0.84423387        6 
C       0.48523044       2.81434939       0.20660386        6 
C       0.52403442       1.46462354      -0.54780733        6 
O      -0.81979671       1.39214518      -1.05271888        8 
H      -1.12739792       0.26139367       2.00554527        1 
H       1.02105988       0.78014933       1.45931066        1 
H       3.86983820      -1.74146738      -0.38339583        1 
H      -2.40834428      -3.35050698      -0.52704378        1 
H      -1.53521397       3.62446735       0.56757744        1 
H      -0.91547839       2.69690523       1.93432468        1 
H       0.56497845       3.63300646      -0.51161333        1 
H       1.29000205       2.91659235       0.93651996        1 
H       4.45181053      -1.44039456       1.28426616        1 
H       3.21457659      -2.69650710       0.96518756        1 
H      -1.81698107      -2.85590980      -2.14370040        1 
H      -3.30524108      -2.12681994      -1.45755794        1 
H      -2.58138882       1.46840060       0.03582713        1 
C       1.52471009       1.34179915      -1.67214990        6 
H       1.35881620       2.13959678      -2.39902881        1 
H       2.54371846       1.43172218      -1.28698675        1 
H       1.42263637       0.38085551      -2.17924752        1 
