32
Lattice="0.0 0.0 0.0 0.0 0.0 0.0 0.0 0.0 0.0" Properties=species:S:1:pos:R:3:Z:I:1 pbc="F F F"
C       0.32787555       1.11811672       0.56768761        6 
C       0.57432703      -0.41201260       0.83836731        6 
C      -1.04599913       1.68295484       0.26954872        6 
C      -0.65410842      -1.30479064       0.72374649        6 
O      -1.87987395       0.83234611      -0.34615404        8 
O      -1.33129232       2.83214191       0.51618649        8 
O      -0.88856880      -1.76816845      -0.51171454        8 
O      -1.32989596      -1.59575568       1.68400922        8 
C      -2.07930673      -2.55420167      -0.67438893        6 
C      -3.18288976       1.34540558      -0.68277117        6 
C       1.31299815       1.37211043      -0.62996562        6 
C       2.72795111       1.53687136      -0.05134052        6 
C       3.00809787       0.07693153       0.39964257        6 
C       1.76204286      -0.68947619      -0.14566384        6 
O       1.38361706       0.10886079      -1.28746868        8 
H       0.66017250       1.69553549       1.42923146        1 
H       0.89223636      -0.53672163       1.87348504        1 
H      -2.95640762      -1.97154952      -0.38864218        1 
H      -3.72107685       1.63374971       0.22108117        1 
H       3.41751332       1.84834247      -0.83755675        1 
H       2.77436328       2.26747727       0.75806814        1 
H       3.91475767      -0.31738273      -0.06107334        1 
H       3.11261226      -0.02837003       1.48148181        1 
H      -2.11516720      -2.80900830      -1.73143341        1 
H      -2.03471638      -3.45592566      -0.06156238        1 
H      -3.69207767       0.52818384      -1.18860381        1 
H      -3.09308894       2.20927694      -1.34220093        1 
H       0.98827933       2.14066780      -1.32823789        1 
C       2.05167475      -2.12258391      -0.53776364        6 
H       2.92663218      -2.15431507      -1.19076807        1 
H       2.27242794      -2.71640363       0.35422106        1 
H       1.20825585      -2.57007550      -1.05792859        1 
