32
Lattice="0.0 0.0 0.0 0.0 0.0 0.0 0.0 0.0 0.0" Properties=species:S:1:pos:R:3:Z:I:1 pbc="F F F"
C       0.10643326       1.19056181       0.46698226        6 
C       0.39780235      -0.32543134       0.67182817        6 
C      -1.27717798       1.58746845      -0.01080716        6 
C      -0.55532525      -1.26037746      -0.04195266        6 
O      -2.22780150       0.94177492       0.69687901        8 
O      -1.51065078       2.46698126      -0.80079795        8 
O      -0.58049947      -2.46162923       0.58186726        8 
O      -1.18965784      -1.01878155      -1.03726072        8 
C      -1.38530805      -3.47795873      -0.04291558        6 
C      -3.58953287       1.20016516       0.30934837        6 
C       1.27570725       1.63548532      -0.44628454        6 
C       2.51987118       1.85032331       0.43561745        6 
C       2.83211250       0.38149223       0.84472015        6 
C       1.81626462      -0.41957672      -0.02344597        6 
O       1.61878969       0.43868723      -1.15698204        8 
H       0.18873445       1.68847898       1.43952659        1 
H       0.44640882      -0.61288122       1.72058100        1 
H      -1.02997313      -3.67783055      -1.05517555        1 
H      -3.82401624       2.26101572       0.40722977        1 
H       3.32945508       2.27323607      -0.16095101        1 
H       2.33544406       2.51305094       1.28362208        1 
H       3.85247197       0.09757351       0.58164785        1 
H       2.69742003       0.19115000       1.91172294        1 
H      -1.27533669      -4.36088581       0.58292269        1 
H      -2.42932912      -3.16432364      -0.08622775        1 
H      -4.20140791       0.60784954       0.98645842        1 
H      -3.74692615       0.88547582      -0.72331970        1 
H       1.02257685       2.42777514      -1.14474808        1 
C       2.28167870      -1.78926804      -0.46533093        6 
H       3.25573067      -1.70324426      -0.95160971        1 
H       2.37517916      -2.45923724       0.39222296        1 
H       1.58430495      -2.23279313      -1.17807465        1 
