32
Lattice="0.0 0.0 0.0 0.0 0.0 0.0 0.0 0.0 0.0" Properties=species:S:1:pos:R:3:Z:I:1 pbc="F F F"
C      -0.94478483       0.39957160       0.94056853        6 
C       0.57496417       0.27458242       0.63182488        6 
C      -1.93107173      -0.65580348       0.45953626        6 
C       1.18023817      -1.09811922       0.41308765        6 
O      -1.73643173      -1.03947353      -0.80321654        8 
O      -2.88821952      -0.98658799       1.12502323        8 
O       2.50687193      -1.03473521       0.70482099        8 
O       0.65045028      -2.10704505       0.02636043        8 
C       3.25934820      -2.23986489       0.47639666        6 
C      -2.64925422      -2.01835346      -1.32420556        6 
C      -1.23662935       1.71932762       0.15260495        6 
C      -0.46706610       2.90665818       0.78659721        6 
C       0.95630681       2.70339900       0.18602671        6 
C       0.78306407       1.34105723      -0.52659720        6 
O      -0.53777036       1.48915341      -1.07137001        8 
H      -1.12860594       0.51196424       2.00783114        1 
H       1.11179729       0.65067994       1.50438120        1 
H       3.22587514      -2.51638645      -0.57896360        1 
H      -2.55740454      -2.95147267      -0.76588473        1 
H      -0.90305208       3.85670306       0.47568409        1 
H      -0.48421713       2.87190044       1.87802684        1 
H       1.18473899       3.47104181      -0.55592663        1 
H       1.75156086       2.69786709       0.93380555        1 
H       4.27828075      -2.00723988       0.77823914        1 
H       2.85909478      -3.06036802       1.07346237        1 
H      -2.35119289      -2.16570690      -2.35980742        1 
H      -3.67748743      -1.65818874      -1.26495469        1 
H      -2.29110291       1.89717790      -0.04801741        1 
C       1.77390488       0.99810567      -1.61210474        6 
H       1.78413787       1.78651372      -2.36792483        1 
H       2.77660261       0.89822009      -1.19303749        1 
H       1.50068476       0.05799542      -2.09654723        1 
