32
Lattice="0.0 0.0 0.0 0.0 0.0 0.0 0.0 0.0 0.0" Properties=species:S:1:pos:R:3:Z:I:1 pbc="F F F"
C       0.12805728       1.25937914       0.50845473        6 
C       0.59299268      -0.22062594       0.81324746        6 
C      -1.15007001       1.44026271      -0.31139913        6 
C      -0.52648371      -1.24564935       0.87601860        6 
O      -2.21490648       0.90775262       0.31274650        8 
O      -1.22321318       2.02757766      -1.36202428        8 
O      -0.65480623      -1.98652459      -0.24183970        8 
O      -1.29097282      -1.31778590       1.80603626        8 
C      -1.76398274      -2.90379885      -0.26702396        6 
C      -3.47889596       1.01596811      -0.36624762        6 
C       1.33595101       1.74386879      -0.32298150        6 
C       2.60238752       1.82651996       0.55791138        6 
C       3.01658892       0.33084268       0.63205213        6 
C       1.84807383      -0.35687264      -0.12686950        6 
O       1.58244892       0.60693021      -1.16325464        8 
H      -0.01361239       1.80695982       1.44257372        1 
H       0.94430442      -0.21829496       1.84747607        1 
H      -2.70517593      -2.36176927      -0.16472043        1 
H      -3.76665464       2.06288837      -0.47463247        1 
H       3.36754851       2.43256364       0.07159227        1 
H       2.39806903       2.26801522       1.53625076        1 
H       3.94751438       0.15273163       0.09048147        1 
H       3.14067267      -0.04314902       1.65021741        1 
H      -1.70776689      -3.39841503      -1.23424804        1 
H      -1.67913278      -3.62991801       0.54270984        1 
H      -4.18873734       0.48680367       0.26570699        1 
H      -3.42038307       0.55672488      -1.35426980        1 
H       1.12161001       2.61061858      -0.94051401        1 
C       2.19114683      -1.70533929      -0.72033158        6 
H       3.11751173      -1.62036732      -1.29295345        1 
H       2.34474152      -2.44214781       0.07318445        1 
H       1.39803805      -2.06192648      -1.37255100        1 
