32
Lattice="0.0 0.0 0.0 0.0 0.0 0.0 0.0 0.0 0.0" Properties=species:S:1:pos:R:3:Z:I:1 pbc="F F F"
C       0.07599406       1.06524917       0.58757113        6 
C       0.46179664      -0.46005437       0.59314616        6 
C      -1.13726116       1.44945748      -0.24361493        6 
C      -0.57375915      -1.41727329       0.04140820        6 
O      -2.18586544       1.72878900       0.57633203        8 
O      -1.21441564       1.47056712      -1.44105983        8 
O      -0.93368640      -2.31047981       0.99998564        8 
O      -1.02397207      -1.43844566      -1.07438735        8 
C      -1.90363324      -3.29712181       0.60271716        6 
C      -3.42716238       2.03633052      -0.08585261        6 
C       1.36782771       1.66005629      -0.04678159        6 
C       2.53849055       1.54703496       0.95648756        6 
C       2.90552532       0.04146221       0.81582982        6 
C       1.83060550      -0.44619839      -0.19172078        6 
O       1.69721282       0.69638142      -1.04711336        8 
H      -0.08605655       1.41715246       1.60534026        1 
H       0.63605960      -0.76816085       1.62279088        1 
H      -1.51712904      -3.90472049      -0.21710969        1 
H      -3.32682006       2.94241154      -0.68580602        1 
H       3.36427309       2.19067497       0.65062171        1 
H       2.24898013       1.82977419       1.97081514        1 
H       3.89594904      -0.08452122       0.37449308        1 
H       2.88303501      -0.50573739       1.76014578        1 
H      -2.07369996      -3.90863877       1.48623191        1 
H      -2.82946040      -2.81576287       0.28394092        1 
H      -4.15269848       2.18487572       0.71119872        1 
H      -3.72654220       1.21102615      -0.73370269        1 
H       1.23144750       2.63425687      -0.51061101        1 
C       2.17787470      -1.68399494      -0.98723999        6 
H       3.14480799      -1.54975754      -1.47657542        1 
H       2.24439938      -2.55355532      -0.32694626        1 
H       1.42329480      -1.87577814      -1.75025881        1 
