32
Lattice="0.0 0.0 0.0 0.0 0.0 0.0 0.0 0.0 0.0" Properties=species:S:1:pos:R:3:Z:I:1 pbc="F F F"
C      -0.27865500       0.85792927      -0.98941127        6 
C      -0.43811596      -0.64042948      -0.62762643        6 
C       0.76988152       1.75172717      -0.33186751        6 
C       0.70129750      -1.64247118      -0.54758439        6 
O       1.39606386       1.20757711       0.71331030        8 
O       0.88883856       2.91490530      -0.64965314        8 
O       1.92899145      -1.12890600      -0.40476934        8 
O       0.50069322      -2.82485064      -0.72372600        8 
C       3.01657534      -2.07202970      -0.44305997        6 
C       2.24695681       2.08565377       1.46946561        6 
C      -1.62249639       1.35893693      -0.34915312        6 
C      -2.86629357       0.65171171      -0.94882302        6 
C      -2.87897863      -0.68839589      -0.15374353        6 
C      -1.50719023      -0.60909178       0.54994215        6 
O      -1.50804118       0.77605982       0.95515020        8 
H      -0.23132744       1.02854950      -2.06488909        1 
H      -0.97216631      -1.06759199      -1.47990380        1 
H       3.04453846      -2.58302461      -1.40682730        1 
H       3.04263529       2.48505620       0.83869831        1 
H      -3.76368294       1.24231946      -0.76071966        1 
H      -2.78171566       0.51144296      -2.02890887        1 
H      -3.67365536      -0.69756175       0.59541254        1 
H      -2.98331660      -1.57379043      -0.78344281        1 
H       3.91586530      -1.47785019      -0.29646323        1 
H       2.90920379      -2.81198049       0.35099426        1 
H       2.65979674       1.47053781       2.26592038        1 
H       1.66622226       2.91174281       1.88273903        1 
H      -1.69060939       2.44090758      -0.27434758        1 
C      -1.26669686      -1.51558460       1.73107858        6 
H      -2.03074029      -1.34283720       2.49227582        1 
H      -1.30505650      -2.56237817       1.42321943        1 
H      -0.28663450      -1.31661006       2.17103832        1 
