32
Lattice="0.0 0.0 0.0 0.0 0.0 0.0 0.0 0.0 0.0" Properties=species:S:1:pos:R:3:Z:I:1 pbc="F F F"
C      -0.80029277       0.60661622       0.67118756        6 
C       0.62243079      -0.01469181       0.59747678        6 
C      -1.90128240      -0.01461282      -0.17754755        6 
C       0.76918712      -1.48788972       0.27807166        6 
O      -3.03100291      -0.13407914       0.57162982        8 
O      -1.84157075      -0.32938343      -1.33334486        8 
O       1.95575820      -1.92202598       0.78388056        8 
O       0.02328986      -2.20469953      -0.33407364        8 
C       2.29752413      -3.28941131       0.49452403        6 
C      -4.17009988      -0.68881695      -0.11141882        6 
C      -0.47826283       2.00661409       0.05478599        6 
C       0.50518926       2.78788324       0.96424537        6 
C       1.86770911       2.15092306       0.55894205        6 
C       1.39103174       0.99755128      -0.35514553        6 
O       0.32450140       1.64248148      -1.06830026        8 
H      -1.15486217       0.67789758       1.69810834        1 
H       1.06956100       0.07949913       1.58841407        1 
H       2.38635614      -3.44089288      -0.58270607        1 
H      -4.44988566      -0.06412477      -0.96139601        1 
H       0.47450624       3.85406484       0.73670060        1 
H       0.27044506       2.66486656       2.02410099        1 
H       2.47129244       2.84828430      -0.02588106        1 
H       2.46304935       1.80913162       1.40751831        1 
H       3.25364213      -3.45992771       0.98479845        1 
H       1.53764038      -3.96592871       0.88828776        1 
H      -4.96919847      -0.71222498       0.62671034        1 
H      -3.94445347      -1.69517088      -0.46764699        1 
H      -1.35125077       2.56342081      -0.27962836        1 
C       2.39854874       0.41410303      -1.31578527        6 
H       2.80049505       1.20473445      -1.95296933        1 
H       3.22111185      -0.05019004      -0.76874871        1 
H       1.92742375      -0.33806673      -1.95221723        1 
