32
Lattice="0.0 0.0 0.0 0.0 0.0 0.0 0.0 0.0 0.0" Properties=species:S:1:pos:R:3:Z:I:1 pbc="F F F"
C      -0.70435851       0.65062026       0.60598376        6 
C       0.70821535       0.00312213       0.65949263        6 
C      -1.86220257      -0.30125332       0.38438986        6 
C       0.81890085      -1.32819234      -0.05961697        6 
O      -2.91161744       0.32487647      -0.18538825        8 
O      -1.87911853      -1.45775910       0.72474867        8 
O       1.62207608      -2.16928100       0.63153893        8 
O       0.32119670      -1.60532830      -1.12003284        8 
C       1.82232127      -3.46512317       0.03725213        6 
C      -4.08488080      -0.48245510      -0.40446911        6 
C      -0.48994202       1.83757777      -0.37931397        6 
C       0.14466666       2.99592897       0.41412565        6 
C       1.55145564       2.39685404       0.70432178        6 
C       1.52812527       1.08742817      -0.13952752        6 
O       0.60454482       1.40683522      -1.19436140        8 
H      -0.92488908       1.06095078       1.59875160        1 
H       1.07792599      -0.11425183       1.67605808        1 
H       2.29760614      -3.36887308      -0.94052665        1 
H      -3.84802913      -1.31955719      -1.06208471        1 
H       0.21632058       3.88323001      -0.21703378        1 
H      -0.41559618       3.26057476       1.31337164        1 
H       2.34886872       3.05474479       0.35560901        1 
H       1.72396751       2.19524332       1.76378795        1 
H       2.46899455      -4.00408257       0.72632178        1 
H       0.86664455      -3.97856966      -0.07705305        1 
H      -4.80861691       0.18136855      -0.87220000        1 
H      -4.46780195      -0.86396847       0.54331146        1 
H      -1.34712838       2.07948011      -0.99952600        1 
C       2.86282741       0.65005261      -0.70049374        6 
H       3.32106899       1.47381714      -1.25212770        1 
H       3.53593776       0.35590654       0.10859532        1 
H       2.74410978      -0.19322804      -1.38275287        1 
