32
Lattice="0.0 0.0 0.0 0.0 0.0 0.0 0.0 0.0 0.0" Properties=species:S:1:pos:R:3:Z:I:1 pbc="F F F"
C      -0.71260039       0.74621452       0.64043612        6 
C       0.68390725       0.05851317       0.72302015        6 
C      -1.73088647      -0.02793259      -0.17387678        6 
C       0.58325991      -1.45786077       0.65305949        6 
O      -2.98120761       0.24556752       0.25999913        8 
O      -1.49333040      -0.73332964      -1.12125472        8 
O       1.60289263      -2.05245302       0.01718534        8 
O      -0.30140508      -2.06794300       1.20568073        8 
C       1.55405319      -3.49210833      -0.04089889        6 
C      -4.04944580      -0.38764994      -0.46886810        6 
C      -0.33342494       2.03133193      -0.14826307        6 
C       0.58027629       2.93118277       0.71643001        6 
C       1.94690223       2.20405665       0.56037388        6 
C       1.54420903       0.94881106      -0.26213347        6 
O       0.54819569       1.51361646      -1.14241228        8 
H      -1.13710318       0.96924933       1.61742455        1 
H       1.07171995       0.21188225       1.73581757        1 
H       0.65028559      -3.81454603      -0.55891684        1 
H      -4.03866306      -0.07317226      -1.51378998        1 
H       0.61501135       3.94294711       0.31014824        1 
H       0.23664331       2.99686600       1.75128478        1 
H       2.64788722       2.80563236      -0.02131811        1 
H       2.42194693       1.95489125       1.51124009        1 
H       2.44237744      -3.78696582      -0.59518206        1 
H       1.56706368      -3.91585583       0.96419612        1 
H      -4.96574661      -0.06397969       0.02000227        1 
H      -3.94846443      -1.47266732      -0.41839824        1 
H      -1.17557197       2.53324842      -0.62119294        1 
C       2.65515345       0.33185623      -1.08001433        6 
H       3.11794555       1.11244649      -1.68873138        1 
H       3.41671591      -0.10709835      -0.43303666        1 
H       2.27135904      -0.44860158      -1.73377552        1 
