32
Lattice="0.0 0.0 0.0 0.0 0.0 0.0 0.0 0.0 0.0" Properties=species:S:1:pos:R:3:Z:I:1 pbc="F F F"
C      -0.32934756       0.86907987      -0.80593886        6 
C      -0.51102983      -0.68691721      -0.59565305        6 
C       1.02986660       1.44245669      -0.45602918        6 
C       0.71286457      -1.35203166       0.01484915        6 
O       1.28606158       1.36615170       0.86014534        8 
O       1.79400298       1.91641441      -1.26325843        8 
O       1.64641049      -1.50913103      -0.95466561        8 
O       0.88854285      -1.68204090       1.15829309        8 
C       2.91262544      -2.05054638      -0.53820516        6 
C       2.56742883       1.85131327       1.29613376        6 
C      -1.50557339       1.41295562       0.06129273        6 
C      -2.80859809       1.24890261      -0.74475778        6 
C      -2.99044442      -0.29348990      -0.66996322        6 
C      -1.81570558      -0.72149956       0.26344364        6 
O      -1.65122828       0.44236849       1.09731980        8 
H      -0.47295263       1.11650032      -1.85665793        1 
H      -0.66379306      -1.15856174      -1.56722988        1 
H       2.78284186      -3.04943748      -0.11887992        1 
H       3.37014779       1.33990623       0.76257998        1 
H      -3.62558526       1.77030709      -0.24351072        1 
H      -2.73092546       1.63338000      -1.76354984        1 
H      -3.94159159      -0.56199764      -0.20798072        1 
H      -2.94347833      -0.78259931      -1.64520928        1 
H       3.52194032      -2.08657990      -1.43821996        1 
H       3.37424066      -1.40521184       0.21091129        1 
H       2.61047474       1.63112239       2.35997596        1 
H       2.64893837       2.92515579       1.11923863        1 
H      -1.33315242       2.39443857       0.49725390        1 
C      -2.09240274      -1.95793395       1.09125058        6 
H      -3.04374293      -1.84001951       1.61496020        1 
H      -2.16663265      -2.83539102       0.44182072        1 
H      -1.30062350      -2.12687646       1.81693698        1 
