32
Lattice="0.0 0.0 0.0 0.0 0.0 0.0 0.0 0.0 0.0" Properties=species:S:1:pos:R:3:Z:I:1 pbc="F F F"
C       0.05183023       0.78598868       0.80413420        6 
C       0.55070270      -0.68401241       0.52996762        6 
C      -1.29785562       1.12924625       0.17951128        6 
C      -0.50891329      -1.61787043      -0.02847494        6 
O      -1.32352944       2.37194162      -0.33404567        8 
O      -2.26396824       0.40569703       0.19612597        8 
O      -1.18180390      -2.19332611       0.99028049        8 
O      -0.69668769      -1.88548902      -1.18873740        8 
C      -2.31924677      -2.99113612       0.61808252        6 
C      -2.57117466       2.78344783      -0.92679196        6 
C       1.23353430       1.59245149       0.21726688        6 
C       2.49405920       1.40036618       1.08905430        6 
C       2.95299331      -0.01616247       0.64552633        6 
C       1.82682354      -0.41873679      -0.34530378        6 
O       1.52946490       0.84910526      -0.97084197        8 
H      -0.07449984       0.95257657       1.87756994        1 
H       0.84516140      -1.12589851       1.48230165        1 
H      -2.01850122      -3.80656455      -0.04125546        1 
H      -2.83082141       2.12056321      -1.75300514        1 
H       3.24073536       2.15771852       0.84659832        1 
H       2.27760283       1.47432568       2.15747181        1 
H       3.90395883       0.02577310       0.11166760        1 
H       3.05829364      -0.72356832       1.47006748        1 
H      -2.71923176      -3.38002641       1.55214491        1 
H      -3.05716151      -2.36434116       0.11563814        1 
H      -2.39870009       3.79535770      -1.28607767        1 
H      -3.37008062       2.76693752      -0.18416252        1 
H       0.99126621       2.61799962      -0.04004553        1 
C       2.22803401      -1.44965082      -1.37704064        6 
H       3.14979298      -1.12840366      -1.86717433        1 
H       2.41355759      -2.41427224      -0.89581368        1 
H       1.44680477      -1.58238576      -2.12164723        1 
