32
Lattice="0.0 0.0 0.0 0.0 0.0 0.0 0.0 0.0 0.0" Properties=species:S:1:pos:R:3:Z:I:1 pbc="F F F"
C       0.43668482       0.96764333       0.64818158        6 
C       0.34691139      -0.59519661       0.57565040        6 
C      -0.73894375       1.89902847       0.41406178        6 
C      -0.84934172      -1.23898903      -0.10781320        6 
O      -1.69532897       1.41856560      -0.38337306        8 
O      -0.77404200       3.00188010       0.91383726        8 
O      -1.50162772      -2.03241998       0.78468059        8 
O      -1.19477556      -1.12424753      -1.25258768        8 
C      -2.65108074      -2.73044495       0.27445406        6 
C      -2.80239739       2.29265579      -0.66979070        6 
C       1.63965567       1.26076951      -0.31958022        6 
C       2.94235208       1.03033401       0.46682506        6 
C       2.88403585      -0.51376761       0.63988956        6 
C       1.65931684      -0.89945656      -0.24648527        6 
O       1.62749405       0.15790415      -1.22066572        8 
H       0.74185231       1.23445356       1.66064749        1 
H       0.40779360      -1.01472937       1.57805323        1 
H      -2.36438122      -3.39709772      -0.54078614        1 
H      -3.32844256       2.55620686       0.24910191        1 
H       3.79902110       1.32949014      -0.13945072        1 
H       2.97834641       1.58123117       1.40786876        1 
H       3.78638935      -0.99659835       0.26185708        1 
H       2.75020815      -0.82478064       1.67825657        1 
H      -3.04212317      -3.30038806       1.11471181        1 
H      -3.39699214      -2.02218692      -0.09006665        1 
H      -3.44635153       1.72390700      -1.33655453        1 
H      -2.45087395       3.20281560      -1.15726574        1 
H       1.56512514       2.19677549      -0.86815169        1 
C       1.75826761      -2.25339795      -0.91493373        6 
H       2.70716201      -2.33180111      -1.44973001        1 
H       1.72059225      -3.04889172      -0.16515968        1 
H       0.94703385      -2.39852577      -1.62789048        1 
