32
Lattice="0.0 0.0 0.0 0.0 0.0 0.0 0.0 0.0 0.0" Properties=species:S:1:pos:R:3:Z:I:1 pbc="F F F"
C       0.20331912       1.15197168       0.63292854        6 
C       0.52290011      -0.38653429       0.79144858        6 
C      -1.24608596       1.53174552       0.39581600        6 
C      -0.69515732      -1.27706087       0.55085901        6 
O      -1.62535106       1.27930971      -0.87320347        8 
O      -1.97200738       1.99933205       1.23625266        8 
O      -0.43267947      -2.40301166      -0.13099825        8 
O      -1.78652688      -1.03103957       1.00441046        8 
C      -1.54240844      -3.30151607      -0.32457019        6 
C      -3.02068610       1.47819585      -1.16225890        6 
C       1.18970438       1.55104410      -0.50567132        6 
C       2.57058197       1.78006549       0.12862155        6 
C       2.92525732       0.32363607       0.53277838        6 
C       1.77939964      -0.50476594      -0.14152880        6 
O       1.38479480       0.34003021      -1.24135002        8 
H       0.46568827       1.66447486       1.55794141        1 
H       0.79600643      -0.59176680       1.83042131        1 
H      -2.33420571      -2.80987083      -0.89094423        1 
H      -3.62478599       0.81807583      -0.53769511        1 
H       3.26651735       2.16461782      -0.61893249        1 
H       2.54719466       2.47691799       0.96858736        1 
H       3.89128177       0.01848513       0.12961032        1 
H       2.95809532       0.17412629       1.61438114        1 
H      -1.13553720      -4.14081882      -0.88449096        1 
H      -1.93825780      -3.63294147       0.63616252        1 
H      -3.13671653       1.22886855      -2.21492671        1 
H      -3.30900064       2.51432094      -0.97861743        1 
H       0.82441218       2.32944635      -1.17063592        1 
C       2.24790004      -1.85266856      -0.65180610        6 
H       3.18679794      -1.71629252      -1.19357880        1 
H       2.42688062      -2.53844015       0.18019442        1 
H       1.51713082      -2.30352474      -1.31623973        1 
