32
Lattice="0.0 0.0 0.0 0.0 0.0 0.0 0.0 0.0 0.0" Properties=species:S:1:pos:R:3:Z:I:1 pbc="F F F"
C       0.20200038       1.03020078       0.81194373        6 
C       0.70517687      -0.47039489       0.81722936        6 
C      -1.26646735       1.17979033       0.43761435        6 
C      -0.42901918      -1.47650550       0.79440719        6 
O      -1.45072659       1.59163026      -0.82712588        8 
O      -2.17172823       0.96778214       1.20907393        8 
O      -0.94485006      -1.66093682      -0.43811991        8 
O      -0.89552810      -1.97170216       1.78977286        8 
C      -2.13109744      -2.47580759      -0.50662848        6 
C      -2.81518647       1.70510015      -1.26588782        6 
C       1.19110597       1.63788423      -0.21159656        6 
C       2.60653488       1.69330637       0.40581537        6 
C       3.04654460       0.20714898       0.27955993        6 
C       1.77500556      -0.44607081      -0.32964899        6 
O       1.30033892       0.60123331      -1.19445112        8 
H       0.29761073       1.45634404       1.81074919        1 
H       1.19521422      -0.66238869       1.77175272        1 
H      -2.92320343      -2.03483249       0.10025010        1 
H      -3.30877191       0.73289389      -1.21974709        1 
H       3.25033094       2.35195347      -0.17865854        1 
H       2.59859281       2.05818731       1.43541783        1 
H       3.87711094       0.09850957      -0.41989160        1 
H       3.34012988      -0.24489269       1.22851621        1 
H      -2.40927298      -2.49135022      -1.55826192        1 
H      -1.92394884      -3.48545064      -0.14920631        1 
H      -2.75901094       2.05449216      -2.29437742        1 
H      -3.36239125       2.41533972      -0.64434057        1 
H       0.84503722       2.55272076      -0.68370608        1 
C       2.01889350      -1.72533535      -1.09980106        6 
H       2.81005810      -1.56511768      -1.83534026        1 
H       2.33897145      -2.52090636      -0.42061668        1 
H       1.11641297      -2.04785225      -1.61599663        1 
