32
Lattice="0.0 0.0 0.0 0.0 0.0 0.0 0.0 0.0 0.0" Properties=species:S:1:pos:R:3:Z:I:1 pbc="F F F"
C      -0.72797735       0.63765604       0.59555152        6 
C       0.69335649       0.01501309       0.67322578        6 
C      -1.87057183      -0.33788513       0.39893100        6 
C       0.84004537      -1.31064643      -0.04934073        6 
O      -2.92606752       0.25470330      -0.19546788        8 
O      -1.87121590      -1.48356222       0.77390166        8 
O       1.72143817      -2.10327372       0.60354231        8 
O       0.30034754      -1.62311889      -1.07865197        8 
C       1.96606346      -3.38823398       0.00233810        6 
C      -4.08362705      -0.57850803      -0.40055332        6 
C      -0.52767357       1.80826588      -0.41196763        6 
C       0.06391627       2.99725240       0.36844602        6 
C       1.47582212       2.43351545       0.70274264        6 
C       1.50304912       1.11173588      -0.12235863        6 
O       0.59216445       1.39074874      -1.19938630        8 
H      -0.95699118       1.06711669       1.57855473        1 
H       1.05374409      -0.09510875       1.69393693        1 
H       2.39957138      -3.26986373      -0.99233352        1 
H      -3.82499039      -1.43423592      -1.02514156        1 
H       0.13187637       3.87145096      -0.28110869        1 
H      -0.52144863       3.26994598       1.24911664        1 
H       2.26772763       3.10427009       0.36607041        1 
H       1.62468370       2.25015440       1.76914859        1 
H       2.66494594      -3.89172941       0.66682557        1 
H       1.03489723      -3.95094666      -0.07676836        1 
H      -4.81157622       0.05676486      -0.90032048        1 
H      -4.47289587      -0.93273609       0.55524844        1 
H      -1.37958666       2.01486241      -1.05191188        1 
C       2.85902277       0.70379749      -0.65291858        6 
H       3.30171051       1.53168161      -1.21098210        1 
H       3.52657752       0.44215037       0.17154973        1 
H       2.77783934      -0.15399653      -1.32262479        1 
