32
Lattice="0.0 0.0 0.0 0.0 0.0 0.0 0.0 0.0 0.0" Properties=species:S:1:pos:R:3:Z:I:1 pbc="F F F"
C      -0.38543986       1.05766984       0.45330669        6 
C       0.57732311      -0.16325725       0.69229860        6 
C      -1.68901684       0.72891857      -0.25234275        6 
C      -0.07294438      -1.50928656       0.39506533        6 
O      -2.73725718       0.88821130       0.58142166        8 
O      -1.79612243       0.43333704      -1.41626759        8 
O       0.79798801      -2.45617120       0.01322480        8 
O      -1.24237424      -1.73730119       0.59413278        8 
C       0.25018317      -3.77430838      -0.19100092        6 
C      -4.01882160       0.51052370       0.04780866        6 
C       0.51092740       1.97101829      -0.42729055        6 
C       1.55622252       2.65647697       0.47279230        6 
C       2.49396782       1.45667584       0.78202809        6 
C       1.86570919       0.31433816      -0.07769221        6 
O       1.29504414       1.04272545      -1.17852760        8 
H      -0.63516639       1.53479289       1.39978340        1 
H       0.80266899      -0.23440034       1.76130612        1 
H      -0.52826571      -3.74616552      -0.95401359        1 
H      -4.25950262       1.10462300      -0.83524356        1 
H       2.07956444       3.43613321      -0.08305452        1 
H       1.11531683       3.11059578       1.36261233        1 
H       3.51237916       1.65017908       0.44238080        1 
H       2.53878666       1.20247283       1.84304818        1 
H       1.08877826      -4.38519602      -0.51769869        1 
H      -0.16905222      -4.15961407       0.73955839        1 
H      -4.73355865       0.70102495       0.84556002        1 
H      -4.01048181      -0.54789211      -0.21666557        1 
H      -0.03744768       2.61914409      -1.10673641        1 
C       2.87520602      -0.68865427      -0.59510570        6 
H       3.70737823      -0.14383227      -1.04714971        1 
H       3.26270509      -1.30800407       0.21641406        1 
H       2.43343118      -1.34310027      -1.34278006        1 
