32
Lattice="0.0 0.0 0.0 0.0 0.0 0.0 0.0 0.0 0.0" Properties=species:S:1:pos:R:3:Z:I:1 pbc="F F F"
C       0.33814837       1.05750899       0.52788221        6 
C       0.39048201      -0.50038532       0.62751526        6 
C      -0.93355788       1.82872323       0.22937584        6 
C      -0.72242453      -1.28466734      -0.05014771        6 
O      -1.99141707       1.07256019      -0.08593237        8 
O      -0.98685982       3.03096604       0.35628488        8 
O      -1.36804162      -2.04658116       0.86997005        8 
O      -1.00033768      -1.29324744      -1.21997142        8 
C      -2.44180384      -2.85791223       0.36307637        6 
C      -3.22483158       1.76641730      -0.35189966        6 
C       1.52530295       1.36532374      -0.44744865        6 
C       2.82220538       1.36313837       0.37946939        6 
C       2.90258399      -0.14503688       0.75095952        6 
C       1.75838685      -0.76040880      -0.11241413        6 
O       1.65466312       0.16601820      -1.20960127        8 
H       0.60599874       1.45483850       1.51038854        1 
H       0.43100886      -0.81562379       1.66870526        1 
H      -2.06791713      -3.57623938      -0.36870515        1 
H      -3.56038095       2.30059374       0.53830030        1 
H       3.66305125       1.66090727      -0.24906821        1 
H       2.78495549       2.03015946       1.24239949        1 
H       3.86201636      -0.57945073       0.46650384        1 
H       2.75519142      -0.33323568       1.81664826        1 
H      -2.85186317      -3.37304541       1.22925822        1 
H      -3.20182940      -2.23287323      -0.10848118        1 
H      -3.93475920       0.99067209      -0.62930908        1 
H      -3.09078605       2.47450833      -1.17015081        1 
H       1.36663881       2.21749754      -1.10325796        1 
C       2.01844252      -2.16673653      -0.60573592        6 
H       2.98608818      -2.20680366      -1.11028253        1 
H       2.04232891      -2.86312383       0.23734536        1 
H       1.24928713      -2.48577945      -1.30881289        1 
