32
Lattice="0.0 0.0 0.0 0.0 0.0 0.0 0.0 0.0 0.0" Properties=species:S:1:pos:R:3:Z:I:1 pbc="F F F"
C      -0.09938274       1.14743131       0.34218661        6 
C       0.56154880      -0.21352789       0.80003510        6 
C      -1.47503282       0.99832886      -0.27341121        6 
C      -0.39213968      -1.38359564       0.57712925        6 
O      -2.42431164       1.49939582       0.53926181        8 
O      -1.70238633       0.52072965      -1.35851946        8 
O       0.05183884      -2.33351985      -0.25141263        8 
O      -1.48038586      -1.41891878       1.10484719        8 
C      -0.87471274      -3.39613463      -0.55482775        6 
C      -3.78491671       1.30471006       0.11033184        6 
C       0.95923717       1.65132212      -0.68614578        6 
C       2.11703052       2.28889252       0.10188000        6 
C       2.74845968       1.02001687       0.73572564        6 
C       1.93579568      -0.13468800       0.06031866        6 
O       1.54994168       0.45303415      -1.19593569        8 
H      -0.18433241       1.82840214       1.18722099        1 
H       0.70429127      -0.18866936       1.88292822        1 
H      -1.75554217      -2.98823919      -1.05155788        1 
H      -3.95196903       1.76758831      -0.86332340        1 
H       2.81105251       2.77750891      -0.58386702        1 
H       1.78135404       3.02618875       0.83421216        1 
H       3.80431148       0.92719551       0.47857373        1 
H       2.66912233       0.99695137       1.82479903        1 
H      -0.33388405      -4.06508241      -1.22037328        1 
H      -1.17487262      -3.91454520       0.35642413        1 
H      -4.39952665       1.77806408       0.87272887        1 
H      -4.00299408       0.23751953       0.05016201        1 
H       0.54991987       2.23371678      -1.50800006        1 
C       2.75075466      -1.39446922      -0.15023756        6 
H       3.71369347      -1.13082800      -0.59323034        1 
H       2.94040042      -1.88737888       0.80767007        1 
H       2.23809455      -2.09344381      -0.80361908        1 
