32
Lattice="0.0 0.0 0.0 0.0 0.0 0.0 0.0 0.0 0.0" Properties=species:S:1:pos:R:3:Z:I:1 pbc="F F F"
C      -0.41223899       0.89744372       0.49007714        6 
C       0.72599638      -0.12122391       0.85159579        6 
C      -1.73561610       0.34153292       0.01245849        6 
C       0.30196410      -1.57787226       0.70215440        6 
O      -2.72836892       1.20310573       0.33774496        8 
O      -1.92381959      -0.67186903      -0.61172409        8 
O       0.55502657      -2.10915529      -0.49786878        8 
O      -0.20837342      -2.18583086       1.61541811        8 
C      -0.00544311      -3.41134915      -0.74227781        6 
C      -4.04801962       0.84428170      -0.11502955        6 
C       0.28291205       1.74071469      -0.63543888        6 
C       1.22622933       2.75194726       0.03840396        6 
C       2.33158534       1.79184455       0.55846139        6 
C       1.89226792       0.41850700      -0.04111208        6 
O       1.18631575       0.81741610      -1.23656959        8 
H      -0.63354448       1.53517297       1.34473473        1 
H       0.96856485      -0.02146904       1.90969564        1 
H      -1.09289802      -3.35286194      -0.68588270        1 
H      -4.07820816       0.79473692      -1.20476326        1 
H       1.62184385       3.44418397      -0.70677164        1 
H       0.74049864       3.33539808       0.82282506        1 
H       3.31345127       2.06661131       0.17062199        1 
H       2.39957810       1.76072244       1.64766529        1 
H       0.31158667      -3.67685253      -1.74851732        1 
H       0.36479634      -4.13524259      -0.01496846        1 
H      -4.70309808       1.63169225       0.25099937        1 
H      -4.34082589      -0.12253330       0.29655011        1 
H      -0.39339764       2.14346789      -1.38673536        1 
C       3.04435239      -0.51006817      -0.35887677        6 
H       3.79476166       0.02374400      -0.94628100        1 
H       3.51565440      -0.84967453       0.56819248        1 
H       2.70599052      -1.37889163      -0.91790022        1 
