32
Lattice="0.0 0.0 0.0 0.0 0.0 0.0 0.0 0.0 0.0" Properties=species:S:1:pos:R:3:Z:I:1 pbc="F F F"
C      -0.60034724       0.89166619       0.76113399        6 
C       0.66055054      -0.03909827       0.72859836        6 
C      -1.93635034       0.18731990       0.58041534        6 
C       0.43033536      -1.43694558       0.18331734        6 
O      -2.46148043       0.36879874      -0.64123927        8 
O      -2.48431463      -0.41541122       1.47216505        8 
O       1.52582777      -2.19910780       0.40068515        8 
O      -0.57924128      -1.86852902      -0.31254282        8 
C       1.45006832      -3.56207906      -0.05751526        6 
C      -3.65790394      -0.37649359      -0.92734604        6 
C      -0.22410431       1.97438264      -0.28375947        6 
C       0.73105858       2.97936476       0.38528485        6 
C       2.00491017       2.10063366       0.53533431        6 
C       1.59878435       0.80390149      -0.22675250        6 
O       0.64521768       1.28269560      -1.18958686        8 
H      -0.67017850       1.33228382       1.75784549        1 
H       1.11221490      -0.15223130       1.71385910        1 
H       1.32105812      -3.59413396      -1.14087573        1 
H      -3.44670466      -1.44472106      -0.86252234        1 
H       0.91084193       3.82605180      -0.27919162        1 
H       0.34965789       3.36424026       1.33338300        1 
H       2.86946049       2.56276237       0.05605477        1 
H       2.26968645       1.89803361       1.57522592        1 
H       2.39641693      -4.01597805       0.22786029        1 
H       0.61475669      -4.07745679       0.41841808        1 
H      -3.93462489      -0.10070522      -1.94273472        1 
H      -4.45193544      -0.11674618      -0.22570660        1 
H      -1.06402699       2.39278463      -0.82932246        1 
C       2.73784246       0.10072673      -0.93159312        6 
H       3.25817932       0.82045411      -1.56721134        1 
H       3.44649451      -0.31125101      -0.21078181        1 
H       2.37551429      -0.71422281      -1.55880805        1 
