32
Lattice="0.0 0.0 0.0 0.0 0.0 0.0 0.0 0.0 0.0" Properties=species:S:1:pos:R:3:Z:I:1 pbc="F F F"
C       0.11676720       1.13570128       0.36810703        6 
C       0.52593960      -0.29278879       0.83549915        6 
C      -1.32442646       1.41594372      -0.00412364        6 
C      -0.38460131      -1.44434697       0.45901283        6 
O      -2.18061846       0.68516050       0.73836833        8 
O      -1.67421237       2.30696144      -0.73891415        8 
O      -0.93283932      -1.30216862      -0.76026861        8 
O      -0.52088859      -2.43306175       1.14109108        8 
C      -1.77739016      -2.37479313      -1.20816494        6 
C      -3.58216002       0.93404672       0.52873586        6 
C       1.18011136       1.45876513      -0.71457714        6 
C       2.46043924       1.92318573       0.00309217        6 
C       2.90040666       0.59071429       0.67697208        6 
C       1.89892827      -0.43338364       0.06323423        6 
O       1.56786444       0.16820269      -1.20091646        8 
H       0.25940452       1.81401442       1.21831568        1 
H       0.66720326      -0.35615368       1.91272051        1 
H      -2.62409767      -2.49942220      -0.53056627        1 
H      -3.82472377       1.97501300       0.74728906        1 
H       3.19759823       2.25617476      -0.72921161        1 
H       2.28743858       2.73757483       0.70905042        1 
H       3.92249322       0.32163264       0.40593014        1 
H       2.84043672       0.61738493       1.76710027        1 
H      -2.11687839      -2.08101230      -2.19894335        1 
H      -1.21788939      -3.31022128      -1.25609787        1 
H      -4.09964156       0.26628883       1.21389644        1 
H      -3.85536048       0.71145442      -0.50417237        1 
H       0.81879665       2.07915469      -1.52981480        1 
C       2.43656879      -1.83364823      -0.12633316        6 
H       3.37526025      -1.79454651      -0.68272054        1 
H       2.61940933      -2.30519801       0.84170672        1 
H       1.73406273      -2.45661208      -0.68191104        1 
