32
Lattice="0.0 0.0 0.0 0.0 0.0 0.0 0.0 0.0 0.0" Properties=species:S:1:pos:R:3:Z:I:1 pbc="F F F"
C      -0.92571197       0.45222392       0.93495869        6 
C       0.58923700       0.24996651       0.63847074        6 
C      -1.94834504      -0.57354302       0.46538100        6 
C       1.11344943      -1.15246349       0.40173600        6 
O      -1.81505979      -0.91579169      -0.81778871        8 
O      -2.87667324      -0.92008456       1.16260960        8 
O       2.43721909      -1.17612946       0.70729070        8 
O       0.52510011      -2.11956461      -0.00750671        8 
C       3.11718811      -2.42140908       0.46505138        6 
C      -2.75353682      -1.87761243      -1.32470508        6 
C      -1.15137582       1.77745498       0.13574600        6 
C      -0.34508281       2.93461423       0.77891728        6 
C       1.08036634       2.66449560       0.21025258        6 
C       0.86058159       1.31245215      -0.50978110        6 
O      -0.44285292       1.51635739      -1.07606077        8 
H      -1.10800195       0.58133539       2.00048751        1 
H       1.14167155       0.58572630       1.51720191        1 
H       3.07529336      -2.67878868      -0.59473227        1 
H      -2.63703726      -2.82686332      -0.79922263        1 
H      -0.73253358       3.90019970       0.45142147        1 
H      -0.38717726       2.90960153       1.86993842        1 
H       1.36134056       3.42173967      -0.52446321        1 
H       1.85777063       2.62191547       0.97523067        1 
H       4.14581854      -2.25569869       0.77777102        1 
H       2.66297012      -3.22498597       1.04632468        1 
H      -2.50477228      -1.99372371      -2.37720296        1 
H      -3.77715090      -1.51885584      -1.20640535        1 
H      -2.19434161       1.99704690      -0.08283129        1 
C       1.85429584       0.93401973      -1.58132020        6 
H       1.90201095       1.72225771      -2.33574044        1 
H       2.84769056       0.79858629      -1.14998273        1 
H       1.55441012       0.00464360      -2.07055407        1 
