32
Lattice="0.0 0.0 0.0 0.0 0.0 0.0 0.0 0.0 0.0" Properties=species:S:1:pos:R:3:Z:I:1 pbc="F F F"
C       0.01973913       0.91794839       0.45056120        6 
C       0.60667419      -0.52780605       0.65024759        6 
C      -1.35087232       1.01245328      -0.18185868        6 
C      -0.25589446      -1.61584756       0.02684455        6 
O      -2.14697689       1.83172234       0.54684142        8 
O      -1.70662404       0.48879591      -1.20689690        8 
O      -1.27311944      -1.90707642       0.87759602        8 
O      -0.13206489      -2.12910067      -1.05158211        8 
C      -2.27139980      -2.81095034       0.36732372        6 
C      -3.47081796       2.04701728       0.02227615        6 
C       1.13449626       1.56892104      -0.43750098        6 
C       2.28153753       1.99905065       0.49360866        6 
C       2.84151102       0.60702012       0.89793752        6 
C       2.01496169      -0.36158631      -0.00500599        6 
O       1.69891667       0.46884931      -1.14272720        8 
H      -0.04092357       1.42687974       1.41092403        1 
H       0.67857561      -0.74794041       1.71592911        1 
H      -1.83144252      -3.78628498       0.15375006        1 
H      -3.42023642       2.48879719      -0.97403917        1 
H       3.01825714       2.57546171      -0.06836867        1 
H       1.94633952       2.60316874       1.33885472        1 
H       3.90312991       0.51782143       0.66360673        1 
H       2.71563324       0.38420736       1.95995063        1 
H      -3.01793450      -2.89343773       1.15461235        1 
H      -2.71105617      -2.40499676      -0.54490057        1 
H      -3.95234274       2.72776341       0.72078241        1 
H      -4.01617685       1.10351687      -0.03228901        1 
H       0.77543769       2.31608076      -1.14223771        1 
C       2.75976071      -1.61034082      -0.42502281        6 
H       3.72093949      -1.32982986      -0.86143047        1 
H       2.95444803      -2.24271879       0.44673188        1 
H       2.19027540      -2.18122963      -1.15466137        1 
