32
Lattice="0.0 0.0 0.0 0.0 0.0 0.0 0.0 0.0 0.0" Properties=species:S:1:pos:R:3:Z:I:1 pbc="F F F"
C      -0.34486461       1.07347588       0.31157362        6 
C       0.44540946      -0.21829920       0.69373193        6 
C      -1.80391528       0.95557862      -0.08232354        6 
C      -0.09054188      -1.46147603      -0.02212800        6 
O      -2.51451809       0.39557483       0.91868345        8 
O      -2.30121330       1.45766076      -1.05944485        8 
O       0.78258731      -2.48592446       0.03162522        8 
O      -1.20798573      -1.59411707      -0.45676393        8 
C       0.33532659      -3.73087842      -0.53919531        6 
C      -3.90201954       0.14586613       0.63822822        6 
C       0.59985053       1.76131106      -0.70717420        6 
C       1.56487517       2.63668488       0.10208599        6 
C       2.29699831       1.52725299       0.90931291        6 
C       1.86475390       0.21961390       0.15820096        6 
O       1.47242772       0.70613043      -1.14469252        8 
H      -0.39638495       1.68906771       1.21556357        1 
H       0.43448310      -0.42365368       1.76563064        1 
H       0.09794507      -3.60081508      -1.59578612        1 
H      -4.41683183       1.07046496       0.37343291        1 
H       2.25065847       3.15697715      -0.56829688        1 
H       1.06163459       3.37610694       0.72873563        1 
H       3.38023338       1.64442510       0.87402590        1 
H       2.00278686       1.50414896       1.96152871        1 
H       1.16821014      -4.41949344      -0.41478752        1 
H      -0.54876031      -4.09520395      -0.01409223        1 
H      -4.31349593      -0.27476274       1.55335389        1 
H      -3.98668470      -0.56913930      -0.18197367        1 
H       0.09536818       2.21039546      -1.55759234        1 
C       2.99144271      -0.78548095       0.02860870        6 
H       3.89694499      -0.25950427      -0.28205394        1 
H       3.18520368      -1.27478972       0.98595681        1 
H       2.76492936      -1.55172594      -0.70689212        1 
