32
Lattice="0.0 0.0 0.0 0.0 0.0 0.0 0.0 0.0 0.0" Properties=species:S:1:pos:R:3:Z:I:1 pbc="F F F"
C      -0.14116866       0.77047264       0.70921272        6 
C       0.69167650      -0.54918971       0.54303124        6 
C      -1.49179426       0.81238142       0.00696395        6 
C      -0.08782565      -1.74476793       0.01493190        6 
O      -1.94378334       2.08335438      -0.05862073        8 
O      -2.12911652      -0.12957523      -0.39097112        8 
O      -0.81955127      -2.26994666       1.02474427        8 
O      -0.03492761      -2.22612830      -1.08675774        8 
C      -1.73581146      -3.31295070       0.64919528        6 
C      -3.24068033       2.26275221      -0.66006452        6 
C       0.84720737       1.80355533       0.10302691        6 
C       2.06853019       1.97263229       1.03219949        6 
C       2.86445491       0.67722451       0.71375977        6 
C       1.92307276      -0.04089667      -0.29127245        6 
O       1.37074004       1.08232099      -1.01584374        8 
H      -0.34705559       0.98009137       1.76187690        1 
H       1.02998225      -0.85778176       1.53391177        1 
H      -1.20026079      -4.16252450       0.22252867        1 
H      -3.23296656       1.90655615      -1.69100592        1 
H       2.63232408       2.86605401       0.76006120        1 
H       1.78240156       2.06295784       2.08241897        1 
H       3.81037604       0.90620545       0.21988940        1 
H       3.08167436       0.06856792       1.59403537        1 
H      -2.24064607      -3.60209100       1.56869209        1 
H      -2.45120534      -2.92765852      -0.07886251        1 
H      -3.42905194       3.33339590      -0.62512934        1 
H      -4.00075751       1.71957433      -0.09649315        1 
H       0.37768183       2.72308325      -0.23166687        1 
C       2.61823371      -1.00210054      -1.22842079        6 
H       3.45795179      -0.49338493      -1.70806867        1 
H       3.00813408      -1.85559681      -0.66693653        1 
H       1.93454704      -1.37632900      -1.98592336        1 
