32
Lattice="0.0 0.0 0.0 0.0 0.0 0.0 0.0 0.0 0.0" Properties=species:S:1:pos:R:3:Z:I:1 pbc="F F F"
C      -0.23582859       0.78864791      -0.89910660        6 
C      -0.48262305      -0.73568914      -0.54453235        6 
C       1.11086665       1.30532568      -0.40790217        6 
C       0.75240392      -1.39557511       0.03678110        6 
O       1.01096780       2.12995497       0.64241299        8 
O       2.16078424       1.00993416      -0.93124924        8 
O       1.44289046      -2.01538029      -0.93956953        8 
O       1.08646685      -1.39537631       1.19670423        8 
C       2.72664047      -2.54935286      -0.56531698        6 
C       2.25226174       2.59670925       1.20442503        6 
C      -1.47242019       1.42676285      -0.22255203        6 
C      -2.74251497       1.05739335      -1.02081338        6 
C      -2.96114574      -0.41336116      -0.56852550        6 
C      -1.74784826      -0.63980389       0.37511321        6 
O      -1.60411858       0.65951328       0.97887282        8 
H      -0.22554389       0.92064894      -1.98164672        1 
H      -0.71754337      -1.27558095      -1.46135132        1 
H       2.62206845      -3.26581925       0.25033046        1 
H       2.83577711       1.75151537       1.57125641        1 
H      -3.57611085       1.69473331      -0.72293262        1 
H      -2.60569168       1.16509239      -2.09926330        1 
H      -3.88508465      -0.51916510       0.00262913        1 
H      -2.99074305      -1.12634308      -1.39487186        1 
H       3.10929616      -3.03536682      -1.45987157        1 
H       3.38673636      -1.73644286      -0.25999638        1 
H       1.96724149       3.24992553       2.02570808        1 
H       2.83008720       3.14162235       0.45666891        1 
H      -1.35829384       2.47788276       0.02516249        1 
C      -1.94063453      -1.71367332       1.42198094        6 
H      -2.85743438      -1.51707849       1.98268901        1 
H      -2.03665405      -2.69251468       0.94284852        1 
H      -1.09983900      -1.74320437       2.11255913        1 
