32
Lattice="0.0 0.0 0.0 0.0 0.0 0.0 0.0 0.0 0.0" Properties=species:S:1:pos:R:3:Z:I:1 pbc="F F F"
C       0.33437216       0.87644807       0.78794625        6 
C       0.52332858      -0.67992213       0.61301471        6 
C      -1.01640237       1.45565276       0.42379364        6 
C      -0.70015485      -1.37231706       0.03080651        6 
O      -1.35210435       1.18542018      -0.85011620        8 
O      -1.70440789       2.10217487       1.17702429        8 
O      -1.69194645      -1.34209810       0.95508253        8 
O      -0.82777925      -1.87919139      -1.05217010        8 
C      -2.95427031      -1.90155434       0.55132355        6 
C      -2.62370887       1.68186339      -1.30222367        6 
C       1.49732125       1.40906155      -0.10870579        6 
C       2.80870631       1.28654489       0.68834235        6 
C       2.99828134      -0.25641204       0.67198355        6 
C       1.82666927      -0.72851226      -0.24595530        6 
O       1.64348398       0.40856666      -1.11515569        8 
H       0.48696904       1.15865526       1.82832860        1 
H       0.68201193      -1.12880667       1.59555675        1 
H      -2.85011527      -2.96687329       0.33952138        1 
H      -3.42540033       1.32546431      -0.65333849        1 
H       3.61645726       1.79209098       0.15678415        1 
H       2.73851749       1.71169086       1.69120811        1 
H       3.95223625      -0.53746547       0.22384542        1 
H       2.95095732      -0.70668135       1.66567417        1 
H      -3.62474806      -1.74141992       1.39262386        1 
H      -3.32718304      -1.39527841      -0.34042644        1 
H      -2.74062279       1.29360329      -2.31128366        1 
H      -2.62707822       2.77312312      -1.30641962        1 
H       1.30721499       2.37474085      -0.57247986        1 
C       2.12620234      -1.98361431      -1.03700722        6 
H       3.08214444      -1.86723072      -1.55271796        1 
H       2.20399629      -2.84182928      -0.36282573        1 
H       1.34390989      -2.18532548      -1.76370938        1 
