32
Lattice="0.0 0.0 0.0 0.0 0.0 0.0 0.0 0.0 0.0" Properties=species:S:1:pos:R:3:Z:I:1 pbc="F F F"
C       0.42193239       1.11007414       0.72199644        6 
C       0.47519289      -0.45749191       0.76551386        6 
C      -0.87166406       1.74659019       0.25068047        6 
C      -0.91169585      -1.08361987       0.72911843        6 
O      -1.37122216       1.14553081      -0.84561903        8 
O      -1.36308853       2.72212353       0.76383822        8 
O      -1.01059434      -2.18626681      -0.02803075        8 
O      -1.82521186      -0.65757649       1.39587207        8 
C      -2.29723580      -2.83543410      -0.03142192        6 
C      -2.62469892       1.65501685      -1.33234814        6 
C       1.57578228       1.40396402      -0.28129976        6 
C       2.92724062       1.13068124       0.40975756        6 
C       2.94940269      -0.42297604       0.39851275        6 
C       1.59821114      -0.76709427      -0.29631537        6 
O       1.46448770       0.33343920      -1.21990877        8 
H       0.62142179       1.54908674       1.69731787        1 
H       0.84054271      -0.75553881       1.75347038        1 
H      -3.05980869      -2.16096001      -0.42295602        1 
H      -3.39905114       1.52872264      -0.57374934        1 
H       3.74483515       1.54528275      -0.18173369        1 
H       2.98065996       1.56186339       1.41128973        1 
H       3.77436848      -0.80095227      -0.20743820        1 
H       3.03583348      -0.86380389       1.39361280        1 
H      -2.18034377      -3.70094248      -0.67998420        1 
H      -2.57262042      -3.14293192       0.97809483        1 
H      -2.85201432       1.06476026      -2.21757806        1 
H      -2.53714919       2.71177751      -1.58782031        1 
H       1.49272947       2.35943307      -0.79562141        1 
C       1.60570667      -2.07839368      -1.05075348        6 
H       2.49446702      -2.11686391      -1.68498643        1 
H       1.63495292      -2.92305680      -0.35906443        1 
H       0.72042880      -2.17886652      -1.67387754        1 
