32
Lattice="0.0 0.0 0.0 0.0 0.0 0.0 0.0 0.0 0.0" Properties=species:S:1:pos:R:3:Z:I:1 pbc="F F F"
C       0.26421188       1.14057383       0.49176855        6 
C       0.38587512      -0.40616140       0.64021192        6 
C      -1.05837365       1.72759596       0.03923057        6 
C      -0.67869271      -1.20355271      -0.08515167        6 
O      -2.09984564       1.05207938       0.56419577        8 
O      -1.17207482       2.76115890      -0.57165300        8 
O      -1.03922251      -2.28085481       0.65129684        8 
O      -1.11499616      -0.97804525      -1.18524734        8 
C      -2.00107205      -3.16148147       0.04261878        6 
C      -3.41176967       1.52106476       0.20209083        6 
C       1.48265933       1.48569548      -0.40436264        6 
C       2.74118844       1.52013979       0.48217371        6 
C       2.87774869       0.01052732       0.83497492        6 
C       1.78023762      -0.63388283      -0.06191409        6 
O       1.68815183       0.28644022      -1.16164307        8 
H       0.40078983       1.58951221       1.48207954        1 
H       0.40454316      -0.72134529       1.68162492        1 
H      -1.61033527      -3.57080404      -0.89052567        1 
H      -3.54800127       2.55789054       0.51189461        1 
H       3.59565628       1.86647221      -0.10098701        1 
H       2.63851097       2.16752975       1.35555198        1 
H       3.85975240      -0.37957958       0.56232156        1 
H       2.71737476      -0.20257153       1.89408937        1 
H      -2.16899144      -3.95478075       0.76779342        1 
H      -2.92949658      -2.62640312      -0.16320508        1 
H      -4.10675982       0.86802303       0.72538410        1 
H      -3.54994242       1.44090153      -0.87699331        1 
H       1.32327076       2.32978626      -1.06897956        1 
C       2.07617601      -2.03479851      -0.54930187        6 
H       3.05443051      -2.05788055      -1.03388384        1 
H       2.08586494      -2.73504296       0.28965244        1 
H       1.32940738      -2.36476036      -1.27364951        1 
