32
Lattice="0.0 0.0 0.0 0.0 0.0 0.0 0.0 0.0 0.0" Properties=species:S:1:pos:R:3:Z:I:1 pbc="F F F"
C      -0.51616094       0.93437821       0.83097443        6 
C       0.66268625      -0.09255201       0.71466055        6 
C      -1.90116550       0.35749539       0.57587301        6 
C       0.30295640      -1.46770748       0.19384627        6 
O      -2.35550981       0.61293017      -0.65857631        8 
O      -2.54199178      -0.20637553       1.43157215        8 
O       1.25262219      -2.35815618       0.56181424        8 
O      -0.66586992      -1.77068116      -0.45563092        8 
C       1.06786070      -3.70675530       0.09137130        6 
C      -3.59854856      -0.01767267      -1.01336442        6 
C      -0.05169902       2.04097625      -0.15256779        6 
C       1.05804380       2.87407592       0.51996567        6 
C       2.23971809       1.86410172       0.48702543        6 
C       1.61783066       0.66872525      -0.28779095        6 
O       0.67115738       1.31239146      -1.15314871        8 
H      -0.55786622       1.30749192       1.85536749        1 
H       1.16268435      -0.23564484       1.67188455        1 
H       1.07417530      -3.73485970      -0.99969988        1 
H      -3.48249328      -1.10130520      -0.96856620        1 
H       1.27742871       3.75892419      -0.07967769        1 
H       0.79105134       3.20332195       1.52636426        1 
H       3.09160051       2.26089155      -0.06756356        1 
H       2.59006965       1.57332351       1.47914708        1 
H       1.90647322      -4.27087687       0.49324571        1 
H       0.12179863      -4.10990494       0.45494501        1 
H      -3.80553487       0.30405996      -2.03164935        1 
H      -4.39696877       0.29437533      -0.33838458        1 
H      -0.85685907       2.60175321      -0.61743842        1 
C       2.59097437      -0.16251621      -1.09426635        6 
H       3.16770042       0.48969208      -1.75342245        1 
H       3.27929389      -0.69671134      -0.43667485        1 
H       2.06565375      -0.89258443      -1.71384824        1 
