32
Lattice="0.0 0.0 0.0 0.0 0.0 0.0 0.0 0.0 0.0" Properties=species:S:1:pos:R:3:Z:I:1 pbc="F F F"
C      -0.27244403       1.09960136       0.27728428        6 
C       0.47413076      -0.21144310       0.72923479        6 
C      -1.69958836       0.96725444      -0.21759842        6 
C      -0.21546711      -1.47691023       0.20888389        6 
O      -2.54915930       0.88356642       0.82430234        8 
O      -2.04957259       1.05569757      -1.36880462        8 
O       0.62681660      -2.43703159      -0.19908782        8 
O      -1.41209909      -1.63949197       0.23946013        8 
C       0.01808743      -3.65949148      -0.66191579        6 
C      -3.92454648       0.62416577       0.49600958        6 
C       0.72959984       1.69817310      -0.74905209        6 
C       1.73159473       2.54413004       0.04630080        6 
C       2.40674966       1.42071492       0.88015776        6 
C       1.90220510       0.11628136       0.16695871        6 
O       1.54128862       0.58368604      -1.14977975        8 
H      -0.34281467       1.75436538       1.14819746        1 
H       0.46739992      -0.30140360       1.81871013        1 
H      -0.63149414      -3.45801777      -1.51419587        1 
H      -4.31559098       1.39553304      -0.16891890        1 
H       2.44332916       3.01748386      -0.63186706        1 
H       1.26022385       3.31930475       0.65413141        1 
H       3.49444058       1.47819080       0.83572247        1 
H       2.11912942       1.44306749       1.93417459        1 
H       0.84848583      -4.29873885      -0.95345802        1 
H      -0.56456979      -4.12131452       0.13608349        1 
H      -4.45618908       0.62971175       1.44525359        1 
H      -4.00834631      -0.35270072       0.01736400        1 
H       0.26498585       2.14889843      -1.62128884        1 
C       2.97349747      -0.95396786       0.08909466        6 
H       3.91417023      -0.49121022      -0.21792347        1 
H       3.12316822      -1.41702314       1.06823531        1 
H       2.71338122      -1.73012942      -0.62277825        1 
