32
Lattice="0.0 0.0 0.0 0.0 0.0 0.0 0.0 0.0 0.0" Properties=species:S:1:pos:R:3:Z:I:1 pbc="F F F"
C      -0.22793707       0.90992246       0.56284302        6 
C       0.74770759      -0.26593583       0.85190940        6 
C      -1.70266668       0.56776380       0.55551800        6 
C       0.32038435      -1.65901733       0.42599837        6 
O      -2.39661082       1.36098440      -0.28588115        8 
O      -2.21501611      -0.26552480       1.26116395        8 
O      -0.58827628      -1.65711307      -0.56153407        8 
O       0.85219997      -2.66274671       0.84036884        8 
C      -0.99082701      -2.94286972      -1.06293822        6 
C      -3.82172685       1.15284555      -0.31635555        6 
C       0.42961275       1.60878106      -0.66619010        6 
C       1.50178445       2.56715289      -0.11874387        6 
C       2.50619332       1.53639423       0.47251140        6 
C       1.95213605       0.18239851      -0.07066129        6 
O       1.23628106       0.58310827      -1.25577581        8 
H      -0.16388600       1.59814816       1.41499119        1 
H       1.04352994      -0.33045734       1.89734316        1 
H      -1.45771021      -3.52800204      -0.26936072        1 
H      -4.04785268       0.12492636      -0.60245404        1 
H       1.95174068       3.13131544      -0.93726035        1 
H       1.11268268       3.27487832       0.61635396        1 
H       3.51897568       1.70106445       0.10272897        1 
H       2.54477244       1.54985106       1.56379966        1 
H      -1.70568176      -2.73252478      -1.85537151        1 
H      -0.13061996      -3.48648097      -1.45635473        1 
H      -4.20012620       1.85125346      -1.05948596        1 
H      -4.25855563       1.35772422       0.66224979        1 
H      -0.26386698       2.01010056      -1.39832970        1 
C       3.00488502      -0.85085537      -0.40087495        6 
H       3.76601603      -0.40169123      -1.04249123        1 
H       3.48179957      -1.21319718       0.51223926        1 
H       2.57785167      -1.70930628      -0.91967017        1 
