32
Lattice="0.0 0.0 0.0 0.0 0.0 0.0 0.0 0.0 0.0" Properties=species:S:1:pos:R:3:Z:I:1 pbc="F F F"
C      -0.29635847       0.90793391      -0.93113002        6 
C      -0.41998703      -0.62834055      -0.59892329        6 
C       1.03009056       1.52721097      -0.51641097        6 
C       0.84824482      -1.26082359      -0.06389306        6 
O       1.02506863       1.99353896       0.73554784        8 
O       1.97091531       1.62317544      -1.27224256        8 
O       1.24553440      -2.26748797      -0.87344142        8 
O       1.43090707      -0.95567456       0.94749262        8 
C       2.44945371      -2.95540204      -0.48283315        6 
C       2.28339408       2.47227661       1.24116813        6 
C      -1.53244025       1.44961327      -0.16628076        6 
C      -2.82034310       1.01319737      -0.90182224        6 
C      -2.91629655      -0.48023554      -0.47421204        6 
C      -1.64091451      -0.63688670       0.39677992        6 
O      -1.55183732       0.65118115       1.02111659        8 
H      -0.37016395       1.06337370      -2.00703577        1 
H      -0.67993445      -1.17115427      -1.50567922        1 
H       2.33331817      -3.39411293       0.50927635        1 
H       3.00315589       1.65295721       1.26487246        1 
H      -3.67541837       1.58675256      -0.54206367        1 
H      -2.75129666       1.15068004      -1.98293264        1 
H      -3.79952041      -0.66099552       0.14136408        1 
H      -2.94051722      -1.17598931      -1.31495976        1 
H       2.59455689      -3.73058398      -1.23185571        1 
H       3.29385706      -2.26480390      -0.47632957        1 
H       2.07321259       2.82308752       2.24885434        1 
H       2.66713190       3.28210128       0.61906029        1 
H      -1.47331508       2.50128223       0.10142442        1 
C      -1.67910831      -1.74146548       1.42831469        6 
H      -2.56203058      -1.62338193       2.05989263        1 
H      -1.73492119      -2.71736730       0.93764440        1 
H      -0.79094698      -1.71244099       2.05969500        1 
