32
Lattice="0.0 0.0 0.0 0.0 0.0 0.0 0.0 0.0 0.0" Properties=species:S:1:pos:R:3:Z:I:1 pbc="F F F"
C       0.14258649       1.19284238       0.37836557        6 
C       0.56462787      -0.26311268       0.84009834        6 
C      -1.22656204       1.30977658      -0.26980548        6 
C      -0.54897293      -1.28551753       0.68616004        6 
O      -2.19316538       1.23785181       0.66548420        8 
O      -1.44233983       1.47836823      -1.44409613        8 
O      -0.61184219      -1.81651955      -0.54831242        8 
O      -1.36242052      -1.51476911       1.54871792        8 
C      -1.71383552      -2.70602660      -0.80687711        6 
C      -3.55063772       1.27248016       0.18891723        6 
C       1.28714669       1.52692493      -0.61134700        6 
C       2.55588585       1.87618584       0.18757546        6 
C       2.95824440       0.47083735       0.71484786        6 
C       1.89564280      -0.44884259       0.03802490        6 
O       1.61446602       0.25588129      -1.18343221        8 
H       0.13847854       1.85528361       1.24497333        1 
H       0.76115872      -0.24657997       1.91223412        1 
H      -2.66277586      -2.20018639      -0.62349417        1 
H      -3.76492998       2.23143459      -0.28585507        1 
H       3.31717733       2.28042323      -0.48135316        1 
H       2.37564712       2.60781619       0.97778345        1 
H       3.95763919       0.18797774       0.38016751        1 
H       2.93762267       0.39368215       1.80397425        1 
H      -1.62149095      -2.97986782      -1.85524461        1 
H      -1.65008831      -3.58931265      -0.16923445        1 
H      -4.16956087       1.13131595       1.07167476        1 
H      -3.72119197       0.47090074      -0.53130155        1 
H       1.00022906       2.21837307      -1.39874889        1 
C       2.37098255      -1.86034694      -0.23192953        6 
H       3.32358865      -1.82942239      -0.76512286        1 
H       2.52518441      -2.39173338       0.71178776        1 
H       1.64893316      -2.40950630      -0.83247040        1 
