32
Lattice="0.0 0.0 0.0 0.0 0.0 0.0 0.0 0.0 0.0" Properties=species:S:1:pos:R:3:Z:I:1 pbc="F F F"
C       0.30347511       1.16179039       0.78417685        6 
C       0.52011187      -0.38776735       0.76539446        6 
C      -0.87490520       1.73919018      -0.00611455        6 
C      -0.74825160      -1.21450717       0.89971653        6 
O      -1.89886053       0.88535690      -0.15632122        8 
O      -0.86818589       2.84995358      -0.47875830        8 
O      -0.97344729      -2.07003671      -0.11125363        8 
O      -1.47271453      -1.11458178       1.86018555        8 
C      -2.16979303      -2.86355177      -0.00590620        6 
C      -3.01999002       1.35908812      -0.92495348        6 
C       1.57867841       1.59179250       0.02063058        6 
C       2.86229287       1.16008019       0.76655104        6 
C       2.96863165      -0.33782712       0.36040722        6 
C       1.61457492      -0.54970540      -0.36461772        6 
O       1.51286229       0.69184018      -1.09945581        8 
H       0.24210940       1.55164796       1.80226039        1 
H       1.01091800      -0.61999190       1.71531987        1 
H      -3.04930993      -2.21892846       0.02515780        1 
H      -3.44211840       2.25609582      -0.47046815        1 
H       3.72102574       1.73518623       0.41921055        1 
H       2.77580549       1.30716476       1.84572798        1 
H       3.78366087      -0.49649529      -0.34808790        1 
H       3.11025442      -1.01431194       1.20587375        1 
H      -2.18163468      -3.48819622      -0.89655131        1 
H      -2.14479806      -3.47765456       0.89535597        1 
H      -3.74337259       0.54675184      -0.91008842        1 
H      -2.70952684       1.58229766      -1.94653403        1 
H       1.55007089       2.61861694      -0.32946750        1 
C       1.57099515      -1.72011341      -1.32004223        6 
H       2.43059369      -1.66073304      -1.99178044        1 
H       1.61610407      -2.66569915      -0.77597653        1 
H       0.65647024      -1.71192191      -1.90962848        1 
