32
Lattice="0.0 0.0 0.0 0.0 0.0 0.0 0.0 0.0 0.0" Properties=species:S:1:pos:R:3:Z:I:1 pbc="F F F"
C      -0.23293200       0.89915134       0.54936479        6 
C       0.74590005      -0.26953480       0.85308570        6 
C      -1.70845438       0.56179304       0.56154635        6 
C       0.33934632      -1.66385648       0.40799975        6 
O      -2.40663369       1.34091021      -0.28998227        8 
O      -2.21782913      -0.25515930       1.28792148        8 
O      -0.61709994      -1.66601414      -0.53302094        8 
O       0.92723212      -2.66017909       0.76028713        8 
C      -0.99552126      -2.94959842      -1.05823406        6 
C      -3.83273855       1.13850515      -0.30354248        6 
C       0.41975992       1.58551686      -0.68946196        6 
C       1.47131110       2.57009130      -0.15041091        6 
C       2.47741304       1.56451369       0.47945956        6 
C       1.95843099       0.19256727      -0.05564405        6 
O       1.24855243       0.56392564      -1.25499756        8 
H      -0.16308546       1.59874600       1.39207705        1 
H       1.02772118      -0.33450094       1.90251450        1 
H      -1.40878365      -3.57459660      -0.26526748        1 
H      -4.06611030       0.10668621      -0.56920612        1 
H       1.92659305       3.11988601      -0.97583965        1 
H       1.06315542       3.28998827       0.56213573        1 
H       3.49649858       1.74004734       0.13311891        1 
H       2.48858966       1.59384614       1.57113849        1 
H      -1.74998752      -2.74109001      -1.81356286        1 
H      -0.13412958      -3.44980986      -1.50303991        1 
H      -4.21518311       1.82524218      -1.05544875        1 
H      -4.25961167       1.36256285       0.67525655        1 
H      -0.27577373       1.96144369      -1.43306757        1 
C       3.04137043      -0.81666177      -0.36167560        6 
H       3.79749547      -0.35223584      -0.99846567        1 
H       3.51690465      -1.15500882       0.56131132        1 
H       2.64533004      -1.69265545      -0.87453267        1 
