32
Lattice="0.0 0.0 0.0 0.0 0.0 0.0 0.0 0.0 0.0" Properties=species:S:1:pos:R:3:Z:I:1 pbc="F F F"
C       0.32225144       0.83678529       0.78665309        6 
C       0.53242848      -0.72014832       0.59554294        6 
C      -1.07196685       1.36852160       0.52270320        6 
C      -0.65312235      -1.43667756      -0.04218616        6 
O      -1.31161009       1.51191396      -0.79645660        8 
O      -1.88921937       1.60044400       1.37892561        8 
O      -1.72927800      -1.30968956       0.76391753        8 
O      -0.67165152      -2.07512744      -1.06290415        8 
C      -2.95146496      -1.91528842       0.30779266        6 
C      -2.63316547       1.94908846      -1.15957414        6 
C       1.44957087       1.39888680      -0.13022899        6 
C       2.76924972       1.34527276       0.65703633        6 
C       2.98928487      -0.19165434       0.71365623        6 
C       1.86007477      -0.72858008      -0.22514442        6 
O       1.63939722       0.38276537      -1.11853689        8 
H       0.51057942       1.09108842       1.82990431        1 
H       0.66378614      -1.18533276       1.57513958        1 
H      -2.84870101      -3.00117700       0.27241717        1 
H      -3.38106918       1.24950921      -0.78270439        1 
H       3.55965888       1.83797852       0.08855962        1 
H       2.70363743       1.81901784       1.63845735        1 
H       3.96605091      -0.47488726       0.31996141        1 
H       2.90859386      -0.59819462       1.72416816        1 
H      -3.70561478      -1.62376093       1.03516518        1 
H      -3.21092355      -1.54959240      -0.68691524        1 
H      -2.64129589       1.97204938      -2.24683400        1 
H      -2.83382029       2.94046793      -0.75047326        1 
H       1.21247475       2.34217165      -0.61553751        1 
C       2.24480343      -1.97978963      -0.98604143        6 
H       3.21492184      -1.82473186      -1.46382488        1 
H       2.33452283      -2.82487983      -0.29710595        1 
H       1.50418549      -2.22907531      -1.74035499        1 
