32
Lattice="0.0 0.0 0.0 0.0 0.0 0.0 0.0 0.0 0.0" Properties=species:S:1:pos:R:3:Z:I:1 pbc="F F F"
C      -0.61723715       0.84466454       0.63708985        6 
C       0.66725770      -0.04473181       0.73064609        6 
C      -1.93993741       0.09925224       0.59530055        6 
C       0.50192341      -1.43082852       0.11438406        6 
O      -2.58261067       0.24192782      -0.57653367        8 
O      -2.37824911      -0.51176436       1.53914601        8 
O       1.67797901      -2.09239673       0.10214797        8 
O      -0.53852863      -1.95430206      -0.19505177        8 
C       1.63397180      -3.45617667      -0.35871852        6 
C      -3.79235670      -0.52412447      -0.72326376        6 
C      -0.25360145       1.83509359      -0.50647340        6 
C       0.51505280       2.99894044       0.13721093        6 
C       1.78082298       2.24042697       0.62055093        6 
C       1.64708864       0.86323542      -0.11038570        6 
O       0.78935844       1.16672968      -1.23082292        8 
H      -0.68645290       1.39867474       1.57718474        1 
H       1.00736020      -0.18413658       1.75779269        1 
H       1.28713677      -3.49837657      -1.39233150        1 
H      -3.56853183      -1.58703633      -0.62371112        1 
H       0.76426552       3.74458796      -0.61973652        1 
H      -0.03634794       3.49121707       0.94106663        1 
H       2.69910220       2.74166571       0.31402451        1 
H       1.81613283       2.11806176       1.70546338        1 
H       2.65668602      -3.81889897      -0.28253049        1 
H       0.96639211      -4.04838211       0.26889130        1 
H      -4.15814252      -0.29887584      -1.72276193        1 
H      -4.52543774      -0.23385699       0.03093651        1 
H      -1.06923690       2.08435626      -1.17768398        1 
C       2.97064426       0.31193544      -0.59835925        6 
H       3.51132006       1.10791193      -1.11565716        1 
H       3.57652100      -0.03421111       0.24157895        1 
H       2.83475051      -0.52024935      -1.28520681        1 
