32
Lattice="0.0 0.0 0.0 0.0 0.0 0.0 0.0 0.0 0.0" Properties=species:S:1:pos:R:3:Z:I:1 pbc="F F F"
C      -0.46541356       0.90763998       0.59970159        6 
C       0.56203801      -0.27180197       0.59335951        6 
C      -1.72678767       0.78972918      -0.23876365        6 
C       0.11562207      -1.64111085       0.12205667        6 
O      -2.80820903       1.08653004       0.53617887        8 
O      -1.81141006       0.50542571      -1.40075108        8 
O       0.52287440      -2.57325370       1.02898332        8 
O      -0.45533428      -1.93196465      -0.89450446        8 
C       0.24438573      -3.94242437       0.68486665        6 
C      -4.08231775       1.03544381      -0.13123311        6 
C       0.43419228       2.02915958      -0.01662253        6 
C       1.56485239       2.39901543       0.97366612        6 
C       2.56271341       1.22923835       0.73856525        6 
C       1.76145149       0.33944011      -0.24464771        6 
O       1.11352430       1.32956173      -1.05657712        8 
H      -0.76550278       1.14694039       1.61841493        1 
H       0.89944351      -0.42200955       1.61762985        1 
H       0.76130036      -4.21707561      -0.23637227        1 
H      -4.11646524       1.75582303      -0.95036124        1 
H       2.00408646       3.36201227       0.71017022        1 
H       1.20711563       2.46394172       2.00341884        1 
H       3.47230350       1.57862831       0.24655614        1 
H       2.84740349       0.70395080       1.65180031        1 
H       0.61344492      -4.53277155       1.52089901        1 
H      -0.82759975      -4.09420328       0.55028363        1 
H      -4.81918947       1.28571254       0.62925360        1 
H      -4.26406494       0.03574482      -0.52915865        1 
H      -0.11821125       2.86796663      -0.43507652        1 
C       2.56047842      -0.61990461      -1.09555492        6 
H       3.34500446      -0.07992758      -1.62979382        1 
H       3.02986513      -1.38280566      -0.46854941        1 
H       1.91628979      -1.11087551      -1.82623273        1 
