32
Lattice="0.0 0.0 0.0 0.0 0.0 0.0 0.0 0.0 0.0" Properties=species:S:1:pos:R:3:Z:I:1 pbc="F F F"
C      -0.63767747       0.82068576       0.65719357        6 
C       0.66413812      -0.03635006       0.73032827        6 
C      -1.92520636       0.02116744       0.57029971        6 
C       0.54543569      -1.40028658       0.07222008        6 
O      -2.67489483       0.34770193      -0.49544953        8 
O      -2.25682249      -0.77900315       1.41133655        8 
O       1.63518531      -2.14882534       0.35223688        8 
O      -0.39178549      -1.81376265      -0.56164243        8 
C       1.64554173      -3.47934659      -0.19797891        6 
C      -3.88087659      -0.41946631      -0.67112622        6 
C      -0.29291114       1.85910682      -0.44690742        6 
C       0.48822891       3.00078055       0.22543076        6 
C       1.78491517       2.24275813       0.62518883        6 
C       1.61887540       0.88476906      -0.12674072        6 
O       0.73648463       1.21961102      -1.21500037        8 
H      -0.73828988       1.33911271       1.61598891        1 
H       1.03198238      -0.17357011       1.74626223        1 
H       1.61564645      -3.44243823      -1.28835860        1 
H      -3.63125648      -1.47207453      -0.81025814        1 
H       0.69942053       3.78561103      -0.50253100        1 
H      -0.03844624       3.44618264       1.07204503        1 
H       2.68059413       2.75811612       0.27631680        1 
H       1.88329438       2.09702322       1.70315454        1 
H       2.57620612      -3.92654709       0.14408995        1 
H       0.78770309      -4.04677085       0.16536841        1 
H      -4.35368065      -0.01488845      -1.56340409        1 
H      -4.53421696      -0.31132820       0.19576469        1 
H      -1.11993209       2.13657495      -1.09235208        1 
C       2.90870746       0.29751431      -0.65699533        6 
H       3.45000046       1.06706866      -1.21167154        1 
H       3.53753257      -0.05489098       0.16294566        1 
H       2.72084055      -0.54048991      -1.32802832        1 
