32
Lattice="0.0 0.0 0.0 0.0 0.0 0.0 0.0 0.0 0.0" Properties=species:S:1:pos:R:3:Z:I:1 pbc="F F F"
C       0.01301311       0.96013869       0.83246651        6 
C       0.72205254      -0.44700140       0.76330882        6 
C      -1.42974953       0.96848325       0.32608265        6 
C      -0.23773848      -1.62448255       0.75338443        6 
O      -1.65939059       1.94505958      -0.57129692        8 
O      -2.29488641       0.22776629       0.72409898        8 
O      -0.59748704      -2.01054291      -0.48491492        8 
O      -0.69975092      -2.09676793       1.76158175        8 
C      -1.65025592      -2.99125584      -0.55430165        6 
C      -3.00273044       2.02619933      -1.08331075        6 
C       0.97674246       1.77870656      -0.05733948        6 
C       2.36063920       1.90194388       0.62203874        6 
C       2.97518764       0.50947519       0.31378821        6 
C       1.78520176      -0.21162914      -0.37269304        6 
O       1.21109357       0.86673355      -1.14118130        8 
H      -0.02982902       1.31362923       1.86512141        1 
H       1.25123270      -0.58440789       1.70759710        1 
H      -2.54686993      -2.60346828      -0.06974990        1 
H      -3.26485424       1.10257717      -1.60116747        1 
H       2.93891530       2.70675235       0.16667884        1 
H       2.27814040       2.11290684       1.69082566        1 
H       3.80294734       0.59019802      -0.39329268        1 
H       3.33419545      -0.01909422       1.19877226        1 
H      -1.82172450      -3.15533403      -1.61614953        1 
H      -1.34328465      -3.91788928      -0.06712374        1 
H      -2.99673186       2.86459093      -1.77611644        1 
H      -3.71205318       2.19817418      -0.27262024        1 
H       0.55819548       2.70296943      -0.44091006        1 
C       2.17005574      -1.37210667      -1.26168401        6 
H       2.95456512      -1.05725020      -1.95373198        1 
H       2.55699894      -2.19740391      -0.65704262        1 
H       1.31441302      -1.73209357      -1.82815521        1 
