36
Lattice="0.0 0.0 0.0 0.0 0.0 0.0 0.0 0.0 0.0" Properties=species:S:1:pos:R:3:Z:I:1 pbc="F F F"
C      -1.16793871      -0.75712535      -0.54404876        6 
C       0.26513368      -0.15778756      -0.77477002        6 
C      -2.25275190       0.18097338      -0.06050603        6 
C       0.31360653       1.35984223      -0.65528168        6 
O      -3.46288923      -0.33943648      -0.37434250        8 
O      -2.11744740       1.20682267       0.55634869        8 
O       0.71776807       1.81354464       0.53748785        8 
O       0.01598080       2.07638289      -1.58200109        8 
C       0.60666699       3.23395133       0.73553878        6 
C      -4.60805259       0.40528358       0.08187097        6 
C      -0.86953435      -1.84674119       0.54014033        6 
C      -0.19722129      -3.04954136      -0.14697668        6 
C       1.21121030      -2.46015206      -0.43949893        6 
C       1.10548760      -1.04547656       0.20068097        6 
O       0.19623253      -1.26712854       1.29451697        8 
H      -1.54031343      -1.22926920      -1.45230929        1 
H       0.56404075      -0.34656061      -1.80427721        1 
H      -0.44205627       3.52739107       0.67593463        1 
H      -4.61282885       1.40229988      -0.36097313        1 
H      -0.14234411      -3.89296172       0.54332452        1 
H      -0.73303113      -3.37508693      -1.04025085        1 
H       1.99502956      -3.03122607       0.06054160        1 
H       1.45597345      -2.41492209      -1.50056083        1 
H       0.99958328       3.41847156       1.73313788        1 
H       1.18387308       3.77457921      -0.01569932        1 
H      -4.59749407       0.49439878       1.16929265        1 
H      -5.47372868      -0.16448883      -0.24854869        1 
H      -1.70619654      -2.07643835       1.19664047        1 
C       2.42005791      -0.49343767       0.71412576        6 
O       3.17330116      -0.09737247      -0.42154666        8 
H       2.94820955      -1.27766109       1.27565246        1 
H       2.23975917       0.35437342       1.37863976        1 
C       4.38840657       0.54223782      -0.08224299        6 
H       4.87958196       0.81628582      -1.01614495        1 
H       5.04876188      -0.12623164       0.48821658        1 
H       4.20812623       1.44985711       0.51018374        1 
