36
Lattice="0.0 0.0 0.0 0.0 0.0 0.0 0.0 0.0 0.0" Properties=species:S:1:pos:R:3:Z:I:1 pbc="F F F"
C      -1.21445070      -0.63656402      -0.53271344        6 
C       0.17667279       0.04232486      -0.63241780        6 
C      -2.41425084       0.28644587      -0.49143058        6 
C       0.26107341       1.36175787       0.11973306        6 
O      -3.45345797      -0.28869938       0.14916017        8 
O      -2.46838686       1.36915039      -1.01765915        8 
O       1.32461700       2.08155928      -0.30582539        8 
O      -0.50164297       1.74757761       0.96738390        8 
C       1.50404959       3.36019838       0.32839164        6 
C      -4.66589160       0.48743042       0.20295725        6 
C      -0.99727431      -1.71951737       0.56632184        6 
C      -0.42180112      -2.96015934      -0.13662882        6 
C       0.95792914      -2.39586167      -0.58996478        6 
C       1.01147652      -1.03415204       0.16516057        6 
O       0.15009886      -1.24956314       1.29286779        8 
H      -1.37708923      -1.16141279      -1.48303021        1 
H       0.53819278       0.17484603      -1.64901911        1 
H       1.67066014       3.23611942       1.40008130        1 
H      -5.04978874       0.66428064      -0.80311968        1 
H      -0.30089980      -3.77479307       0.57921557        1 
H      -1.04348867      -3.31269374      -0.96191381        1 
H       1.78287103      -3.03439412      -0.27258907        1 
H       1.04197474      -2.26362584      -1.66921554        1 
H       2.37792544       3.79979174      -0.14776971        1 
H       0.62457763       3.98692713       0.17423992        1 
H      -4.47904998       1.44436217       0.69141697        1 
H      -5.36661205      -0.11080804       0.78125505        1 
H      -1.83129900      -1.87042104       1.24386414        1 
C       2.39176659      -0.63510494       0.64166644        6 
O       3.21754429      -0.50314319      -0.49964088        8 
H       2.77311489      -1.41742348       1.31446099        1 
H       2.35262305       0.30307129       1.20899122        1 
C       4.47625291       0.07055793      -0.20768465        6 
H       5.02830847       0.12956884      -1.14576162        1 
H       5.04404943      -0.54411892       0.50523714        1 
H       4.36193308       1.08099166       0.20729318        1 
