36
Lattice="0.0 0.0 0.0 0.0 0.0 0.0 0.0 0.0 0.0" Properties=species:S:1:pos:R:3:Z:I:1 pbc="F F F"
C      -1.25874532      -0.85824158      -0.49734604        6 
C       0.09434059      -0.07409202      -0.65317905        6 
C      -2.38221122      -0.13284166       0.22826023        6 
C       0.00335504       1.40555137      -0.29924976        6 
O      -3.35971778       0.20647373      -0.63943936        8 
O      -2.44644524       0.04773529       1.41738231        8 
O       1.21378538       1.98031968      -0.18418726        8 
O      -1.02555899       2.03290402      -0.23184035        8 
C       1.21620320       3.40240071       0.04562990        6 
C      -4.44613991       0.96782706      -0.08476612        6 
C      -0.79118350      -2.08550945       0.33388771        6 
C      -0.01553698      -3.05450137      -0.57673245        6 
C       1.31673262      -2.27517221      -0.76541185        6 
C       1.07903116      -1.02355259       0.12763974        6 
O       0.23870524      -1.53821181       1.16780430        8 
H      -1.63777601      -1.15522956      -1.47441696        1 
H       0.38744483      -0.06054307      -1.70677981        1 
H       0.70353035       3.63891370       0.97897523        1 
H      -4.06964060       1.90627297       0.32480862        1 
H       0.14827367      -4.00296842      -0.06244057        1 
H      -0.53784198      -3.26217491      -1.51285472        1 
H       2.16908957      -2.83763954      -0.38294410        1 
H       1.53083258      -2.01124645      -1.80103059        1 
H       2.26588358       3.68235015       0.10026888        1 
H       0.72267066       3.92132133      -0.77732399        1 
H      -4.94958115       0.40407708       0.70256242        1 
H      -5.12382570       1.15516818      -0.91509879        1 
H      -1.56480942      -2.52556599       0.95788547        1 
C       2.34390757      -0.46760034       0.74734695        6 
O       3.24955144      -0.16246992      -0.29764258        8 
H       2.76164668      -1.24039452       1.40877867        1 
H       2.12843202       0.41883984       1.35137695        1 
C       4.38182360       0.55227434       0.15179955        6 
H       5.01409079       0.73605901      -0.71730727        1 
H       4.95291901      -0.02189490       0.89551543        1 
H       4.09261840       1.51401073       0.59765428        1 
