36
Lattice="0.0 0.0 0.0 0.0 0.0 0.0 0.0 0.0 0.0" Properties=species:S:1:pos:R:3:Z:I:1 pbc="F F F"
C      -1.18526991      -0.66221443      -0.49689018        6 
C       0.17491832       0.07531188      -0.63107359        6 
C      -2.43712669       0.18636589      -0.58742214        6 
C       0.18136644       1.41743052       0.10054306        6 
O      -3.40229026      -0.25259174       0.24595083        8 
O      -2.58075734       1.09880509      -1.36113979        8 
O       1.38978491       2.01507913       0.00156080        8 
O      -0.76938761       1.95665220       0.60580779        8 
C       1.48665579       3.33054114       0.57767961        6 
C      -4.64372073       0.47726227       0.20657286        6 
C      -0.93538653      -1.64195518       0.68885058        6 
C      -0.37061527      -2.92946500       0.07070637        6 
C       0.95879051      -2.36886105      -0.51622343        6 
C       1.05291142      -0.96625278       0.16619699        6 
O       0.23416055      -1.11273082       1.34165217        8 
H      -1.28560376      -1.27288571      -1.40315223        1 
H       0.50945780       0.22188888      -1.65619168        1 
H       1.29527271       3.29324695       1.65149669        1 
H      -5.09416120       0.41244914      -0.78522861        1 
H      -0.18117243      -3.67060386       0.84896883        1 
H      -1.02885421      -3.37160027      -0.68004335        1 
H       1.81856538      -2.98087404      -0.24382603        1 
H       0.94950159      -2.28655875      -1.60401679        1 
H       2.50528122       3.65771682       0.38014049        1 
H       0.76805416       4.00411940       0.10896931        1 
H      -4.47134311       1.52442714       0.45734917        1 
H      -5.28135658       0.00303396       0.94951069        1 
H      -1.74834890      -1.73804604       1.40092675        1 
C       2.46422521      -0.59493346       0.57069657        6 
O       3.22917015      -0.46167752      -0.61356997        8 
H       2.86426916      -1.40133092       1.20338059        1 
H       2.47934374       0.33142868       1.15104096        1 
C       4.52847828       0.04009005      -0.37203972        6 
H       5.03033281       0.11448752      -1.33695685        1 
H       5.10444306      -0.63068522       0.28151786        1 
H       4.48732172       1.03523759       0.09117971        1 
