36
Lattice="0.0 0.0 0.0 0.0 0.0 0.0 0.0 0.0 0.0" Properties=species:S:1:pos:R:3:Z:I:1 pbc="F F F"
C      -0.83379390       1.09138775       0.73577270        6 
C       0.32971881       0.02191065       0.69930556        6 
C      -2.21660404       0.61708859       0.33872663        6 
C      -0.06295762      -1.36534297       0.20623903        6 
O      -2.29035802       0.33853325      -0.97888695        8 
O      -3.14254641       0.49279364       1.10185093        8 
O      -1.18055998      -1.77346524       0.84416220        8 
O       0.54712060      -2.07528849      -0.55254619        8 
C      -1.66490489      -3.08707247       0.51617056        6 
C      -3.54423358      -0.18894527      -1.44520717        6 
C      -0.24485780       2.19536964      -0.19661412        6 
C       0.78013453       3.01034007       0.60943571        6 
C       1.92386820       1.96777957       0.74540331        6 
C       1.39809884       0.79374849      -0.13532176        6 
O       0.58227970       1.46549503      -1.10983029        8 
H      -0.95309139       1.46538727       1.75176544        1 
H       0.68941494      -0.14855168       1.71639213        1 
H      -0.94717701      -3.84662853       0.83035771        1 
H      -4.34709821       0.53344286      -1.29056789        1 
H       1.10085887       3.87866543       0.03179686        1 
H       0.38761904       3.36143908       1.56565410        1 
H       2.86159589       2.34605477       0.33641927        1 
H       2.11486065       1.65554599       1.77238745        1 
H      -2.59984491      -3.19234817       1.06194432        1 
H      -1.83064317      -3.17378715      -0.55880213        1 
H      -3.78623782      -1.11097152      -0.91379086        1 
H      -3.40034847      -0.38226186      -2.50590342        1 
H      -0.98595650       2.76585642      -0.75154657        1 
C       2.49246905       0.00511186      -0.82551569        6 
O       3.20723568      -0.68559148       0.18727730        8 
H       3.15257581       0.70692242      -1.35601219        1 
H       2.06309381      -0.69195927      -1.54628750        1 
C       4.05233611      -1.69822568      -0.32713122        6 
H       4.53075729      -2.18072621       0.52590665        1 
H       4.83052520      -1.27896822      -0.98097468        1 
H       3.47366810      -2.44230716      -0.88844001        1 
