36
Lattice="0.0 0.0 0.0 0.0 0.0 0.0 0.0 0.0 0.0" Properties=species:S:1:pos:R:3:Z:I:1 pbc="F F F"
C      -0.98040363       1.11756319       0.53365999        6 
C       0.23249557       0.11215921       0.65381506        6 
C      -2.13444098       0.63753850      -0.32819355        6 
C      -0.02923186      -1.27484850       0.10513793        6 
O      -3.15868625       0.22072671       0.46014773        8 
O      -2.16122519       0.58488301      -1.52836561        8 
O      -0.28779787      -2.13235255       1.12085376        8 
O      -0.04638874      -1.60356977      -1.05399687        8 
C      -0.58035306      -3.48679557       0.73566616        6 
C      -4.29865930      -0.32190494      -0.23255308        6 
C      -0.26401237       2.33379381      -0.11300147        6 
C       0.67068501       2.99152037       0.92716401        6 
C       1.86371660       1.98973558       0.93242430        6 
C       1.36311423       0.92101852      -0.07290305        6 
O       0.64758371       1.71541325      -1.02474934        8 
H      -1.37380281       1.34569782       1.52316239        1 
H       0.48000691      -0.01605498       1.70487298        1 
H       0.27847612      -3.93214517       0.23033107        1 
H      -4.00584638      -1.18997188      -0.82550157        1 
H       0.98092469       3.98014426       0.58621437        1 
H       0.19539206       3.10432603       1.90385337        1 
H       2.77327795       2.45413331       0.54719697        1 
H       2.08651836       1.57499999       1.91558003        1 
H      -0.79343799      -4.01353560       1.66328001        1 
H      -1.44243559      -3.51826289       0.06738571        1 
H      -4.73769810       0.42760347      -0.89285424        1 
H      -5.00297709      -0.60702687       0.54591739        1 
H      -0.92179773       3.00695116      -0.65787613        1 
C       2.42279466       0.10319743      -0.77917468        6 
O       2.94354969      -0.81601981       0.17035250        8 
H       3.21406455       0.76633310      -1.15577804        1 
H       1.96884111      -0.42313546      -1.62459006        1 
C       3.83194091      -1.75681626      -0.40446137        6 
H       4.16491524      -2.41653189       0.39719071        1 
H       4.70758814      -1.26276921      -0.84800642        1 
H       3.32969568      -2.35008225      -1.17997638        1 
