36
Lattice="0.0 0.0 0.0 0.0 0.0 0.0 0.0 0.0 0.0" Properties=species:S:1:pos:R:3:Z:I:1 pbc="F F F"
C      -1.40604550      -0.85576655      -0.79074140        6 
C       0.02156054      -0.24561593      -0.87722174        6 
C      -2.41553725      -0.17295466       0.13241052        6 
C       0.04076808       1.26468994      -1.04146595        6 
O      -1.95957694       0.94032959       0.72329015        8 
O      -3.48200165      -0.67530416       0.39918166        8 
O       1.11699561       1.86115721      -0.50125863        8 
O      -0.81096166       1.86225723      -1.65351426        8 
C       1.21072668       3.28383508      -0.70161733        6 
C      -2.83293630       1.54491595       1.69399858        6 
C      -1.05392635      -2.17755693      -0.05285067        6 
C      -0.06366908      -3.04505648      -0.86163307        6 
C       1.29536255      -2.35743124      -0.53976150        6 
C       0.80657853      -1.09346514       0.20336459        6 
O      -0.24566709      -1.65050125       1.01801547        8 
H      -1.87395831      -1.00553217      -1.76316061        1 
H       0.42221841      -0.55379013      -1.85032485        1 
H       0.34513047       3.78747694      -0.26888804        1 
H      -3.00378028       0.86020200       2.52619276        1 
H      -0.08587252      -4.07813755      -0.51290994        1 
H      -0.30236136      -3.04806243      -1.92760525        1 
H       1.89593734      -2.96563482       0.13888936        1 
H       1.90034017      -2.12624011      -1.41603650        1 
H       2.12552915       3.58642368      -0.19663804        1 
H       1.26564829       3.51730208      -1.76585261        1 
H      -3.78819382       1.80398556       1.23627468        1 
H      -2.31384303       2.43916965       2.03144097        1 
H      -1.91796670      -2.69399782       0.35473556        1 
C       1.83082909      -0.43276414       1.09870424        6 
O       3.00623418      -0.21941024       0.33703710        8 
H       2.03510010      -1.10913474       1.94155893        1 
H       1.44569685       0.51120646       1.49785265        1 
C       3.93730404       0.62060403       0.98562375        6 
H       4.79709512       0.72257055       0.32279297        1 
H       4.27227086       0.19270533       1.94159125        1 
H       3.50796791       1.61381902       1.17575253        1 
