36
Lattice="0.0 0.0 0.0 0.0 0.0 0.0 0.0 0.0 0.0" Properties=species:S:1:pos:R:3:Z:I:1 pbc="F F F"
C      -1.03356963      -1.01173530      -0.39799703        6 
C       0.24027087      -0.13004192      -0.71453053        6 
C      -2.25970530      -0.24269918       0.04780270        6 
C       0.00697139       1.35224286      -0.45931411        6 
O      -3.25439866      -0.37755918      -0.85760719        8 
O      -2.36952794       0.40057973       1.06213541        8 
O       0.22820008       1.72661229       0.80510853        8 
O      -0.35931792       2.10787515      -1.33037982        8 
C      -0.13620492       3.07598840       1.14382051        6 
C      -4.47135666       0.33699063      -0.56865114        6 
C      -0.47327440      -1.96605414       0.70222542        6 
C       0.33507361      -3.07254833       0.00046572        6 
C       1.56789904      -2.25489545      -0.48072687        6 
C       1.30005866      -0.86308926       0.16773260        6 
O       0.54654779      -1.19707653       1.34266707        8 
H      -1.31437621      -1.57321075      -1.28722239        1 
H       0.48499832      -0.19838865      -1.77198019        1 
H      -1.20903725       3.21319524       1.00276755        1 
H      -4.27837641       1.41010959      -0.53228285        1 
H       0.62314665      -3.83803871       0.72301437        1 
H      -0.21494376      -3.55515860      -0.80974046        1 
H       2.50104397      -2.67145048      -0.09873340        1 
H       1.65343723      -2.19132617      -1.56587701        1 
H       0.12472089       3.18826000       2.19358163        1 
H       0.41067910       3.79039062       0.52677211        1 
H      -4.88730702       0.01204147       0.38612917        1 
H      -5.14804846       0.09749238      -1.38569895        1 
H      -1.20339255      -2.29131337       1.44011314        1 
C       2.54751770      -0.08905263       0.54361064        6 
O       3.12131284       0.38527690      -0.66461071        8 
H       3.24481165      -0.75627836       1.07037601        1 
H       2.29068983       0.74001986       1.20851351        1 
C       4.27221243       1.18130617      -0.45657365        6 
H       4.62183360       1.50361016      -1.43751650        1 
H       5.06974384       0.61126586       0.04023606        1 
H       4.04068562       2.06642755       0.15187598        1 
