36
Lattice="0.0 0.0 0.0 0.0 0.0 0.0 0.0 0.0 0.0" Properties=species:S:1:pos:R:3:Z:I:1 pbc="F F F"
C      -1.35602630      -0.80496581      -0.78647672        6 
C       0.07021657      -0.16683749      -0.82580411        6 
C      -2.49022026      -0.00445558      -0.16515523        6 
C       0.07105776       1.35246901      -0.73678495        6 
O      -2.16137415       0.54422921       1.01605293        8 
O      -3.60568073       0.01852266      -0.62873950        8 
O       1.29278468       1.85427195      -0.48208063        8 
O      -0.89100443       2.04795969      -0.95511448        8 
C       1.39603407       3.29060836      -0.48237356        6 
C      -3.18807390       1.32140756       1.65361106        6 
C      -1.07235856      -2.05076473       0.10414382        6 
C      -0.20346968      -3.06660805      -0.66769824        6 
C       1.19769077      -2.39622205      -0.57297154        6 
C       0.85976588      -1.08567785       0.18626299        6 
O      -0.16863653      -1.52719453       1.08485239        8 
H      -1.70569436      -1.08584371      -1.77807522        1 
H       0.49578434      -0.33723239      -1.82000165        1 
H       0.75183628       3.71918538       0.28673708        1 
H      -4.08381229       0.71982466       1.81466478        1 
H      -0.21871871      -4.03637988      -0.16855982        1 
H      -0.54727085      -3.21081899      -1.69401102        1 
H       1.88495527      -2.99365328       0.02812363        1 
H       1.66991415      -2.21560976      -1.53809977        1 
H       2.44168705       3.50416608      -0.27169007        1 
H       1.11051546       3.69317175      -1.45511128        1 
H      -3.43798739       2.18608488       1.03628021        1 
H      -2.76312329       1.63878490       2.60352571        1 
H      -1.95175521      -2.45963587       0.59751262        1 
C       2.01040291      -0.51796181       0.98924943        6 
O       3.11867966      -0.36775899       0.12075278        8 
H       2.24522553      -1.22882965       1.79503008        1 
H       1.73605964       0.43877454       1.44543186        1 
C       4.17605840       0.36657521       0.70078372        6 
H       4.97518365       0.42118441      -0.03901193        1 
H       4.56077330      -0.12364583       1.60678282        1 
H       3.85520477       1.38459818       0.96148260        1 
