36
Lattice="0.0 0.0 0.0 0.0 0.0 0.0 0.0 0.0 0.0" Properties=species:S:1:pos:R:3:Z:I:1 pbc="F F F"
C      -0.90747935       1.06762616       0.47110792        6 
C       0.27638823       0.03647352       0.63341087        6 
C      -2.21298273       0.58781209      -0.13836723        6 
C       0.06993840      -1.42088251       0.23946934        6 
O      -3.11548264       0.31600505       0.83240205        8 
O      -2.46136258       0.51996262      -1.31512192        8 
O      -1.21641529      -1.74376885       0.03270982        8 
O       0.95924813      -2.23756425       0.19924604        8 
C      -1.48724098      -3.11461513      -0.31357396        6 
C      -4.38752757      -0.17631572       0.38168687        6 
C      -0.24253205       2.13720493      -0.44606575        6 
C       0.68927166       3.01704276       0.40228526        6 
C       1.84627865       2.01968869       0.68530330        6 
C       1.41465296       0.78355366      -0.15550468        6 
O       0.67678680       1.37014896      -1.23530037        8 
H      -1.15093793       1.48110430       1.44975571        1 
H       0.55660864      -0.02842282       1.68734775        1 
H      -1.16723519      -3.77985650       0.48943988        1 
H      -4.25905579      -1.11339326      -0.16314835        1 
H       1.03429736       3.86930709      -0.18522602        1 
H       0.20762921       3.39737559       1.30527968        1 
H       2.80318183       2.39655357       0.32231599        1 
H       1.96912986       1.77447422       1.74016276        1 
H      -2.56425113      -3.16890702      -0.45399806        1 
H      -0.96749695      -3.38075990      -1.23436147        1 
H      -4.87354735       0.55057889      -0.27101295        1 
H      -4.97579221      -0.33619246       1.28287783        1 
H      -0.93748007       2.65219514      -1.10360986        1 
C       2.58146876      -0.01491337      -0.69822507        6 
O       3.37902857      -0.40528092       0.40623339        8 
H       3.15250405       0.63445704      -1.37800030        1 
H       2.23596972      -0.88513154      -1.26228228        1 
C       4.25507382      -1.47671632       0.10808890        6 
H       4.82436022      -1.68524501       1.01453055        1 
H       4.95447067      -1.21199546      -0.69806514        1 
H       3.69016426      -2.37123482      -0.17920735        1 
