36
Lattice="0.0 0.0 0.0 0.0 0.0 0.0 0.0 0.0 0.0" Properties=species:S:1:pos:R:3:Z:I:1 pbc="F F F"
C      -0.78745285       0.97674174       0.65808040        6 
C       0.37209009      -0.09261925       0.66491689        6 
C      -2.22532010       0.49645492       0.61475786        6 
C       0.07490043      -1.46280890       0.05112202        6 
O      -2.76798654       0.59538498      -0.61634366        8 
O      -2.82995440       0.10182085       1.58087528        8 
O      -1.21589546      -1.81059157       0.18201660        8 
O       0.89166431      -2.19219892      -0.45613653        8 
C      -1.59519509      -3.09689060      -0.33865290        6 
C      -4.12174423       0.12974112      -0.74411074        6 
C      -0.30993783       1.95693709      -0.45824111        6 
C       0.62421658       2.97361636       0.20975972        6 
C       1.78370435       2.02528758       0.62372550        6 
C       1.43366604       0.71532599      -0.15483493        6 
O       0.61223771       1.17981662      -1.24139903        8 
H      -0.73801268       1.48513563       1.62322770        1 
H       0.71283384      -0.29012528       1.68313471        1 
H      -1.00201690      -3.88641095       0.12386616        1 
H      -4.78676170       0.69892068      -0.09278949        1 
H       0.95487179       3.71693385      -0.51809308        1 
H       0.16210060       3.49457657       1.05106426        1 
H       2.75613223       2.40285352       0.30735479        1 
H       1.83510749       1.85336794       1.69982832        1 
H      -2.64714225      -3.20915379      -0.08597989        1 
H      -1.45167334      -3.12310172      -1.41997604        1 
H      -4.18384913      -0.92741694      -0.48101770        1 
H      -4.38431993       0.28138247      -1.78891048        1 
H      -1.09477278       2.34649611      -1.09862616        1 
C       2.66067406       0.00004012      -0.68287831        6 
O       3.36934979      -0.48567984       0.44599844        8 
H       3.27139836       0.72447875      -1.24209583        1 
H       2.38229220      -0.81477064      -1.35166031        1 
C       4.38178163      -1.41431018       0.10597445        6 
H       4.84880501      -1.73485964       1.03775357        1 
H       5.14740878      -0.95751333      -0.53750331        1 
H       3.95687220      -2.28677026      -0.40573169        1 
