36
Lattice="0.0 0.0 0.0 0.0 0.0 0.0 0.0 0.0 0.0" Properties=species:S:1:pos:R:3:Z:I:1 pbc="F F F"
C      -0.96416850       1.08857001       0.42075066        6 
C       0.19451438       0.08825150       0.69226988        6 
C      -2.41466055       0.65654037       0.33200925        6 
C       0.04360762      -1.34974307       0.22766435        6 
O      -2.62161562      -0.64409852       0.59544992        8 
O      -3.31328732       1.45636846       0.20674216        8 
O      -0.55439235      -1.45989641      -0.97041185        8 
O       0.53525395      -2.28798727       0.81138691        8 
C      -0.68238957      -2.78993016      -1.49442700        6 
C      -3.99479490      -1.07186195       0.66470269        6 
C      -0.41141107       1.95983108      -0.75133722        6 
C       0.47320062       3.05478489      -0.13349580        6 
C       1.63480734       2.18100368       0.42757233        6 
C       1.30909597       0.78612498      -0.18439993        6 
O       0.56882020       1.11569322      -1.36957104        8 
H      -1.01758895       1.74062279       1.29938471        1 
H       0.47765836       0.04692012       1.74090119        1 
H      -1.28516834      -3.40649438      -0.82486069        1 
H      -4.49468875      -0.89665935      -0.28888508        1 
H       0.82685435       3.73085356      -0.91364323        1 
H      -0.04048082       3.64482871       0.62781729        1 
H       2.60915963       2.52618356       0.07976068        1 
H       1.66832946       2.14837035       1.51700568        1 
H      -1.17500186      -2.67559802      -2.45763597        1 
H       0.29800739      -3.25313497      -1.61798140        1 
H      -4.52281551      -0.53297856       1.45270607        1 
H      -3.95339392      -2.13570273       0.88763269        1 
H      -1.15348640       2.27728485      -1.47894064        1 
C       2.51827216      -0.05171445      -0.54252282        6 
O       3.24461715      -0.28217825       0.64863808        8 
H       3.12732296       0.49368489      -1.27833626        1 
H       2.20769692      -0.99819688      -1.00295066        1 
C       4.22485165      -1.29541743       0.51518801        6 
H       4.72817040      -1.38196867       1.47806956        1 
H       4.96507687      -1.03798254      -0.25547892        1 
H       3.76139085      -2.25805467       0.26369997        1 
