36
Lattice="0.0 0.0 0.0 0.0 0.0 0.0 0.0 0.0 0.0" Properties=species:S:1:pos:R:3:Z:I:1 pbc="F F F"
C      -1.22026631      -0.83430851      -0.87776072        6 
C       0.18992666      -0.13181746      -0.81319425        6 
C      -2.35828108      -0.02208111      -0.27683984        6 
C       0.17357580       1.30335515      -0.32887731        6 
O      -2.52320313      -0.22930438       1.03316439        8 
O      -3.07568642       0.68742301      -0.94546232        8 
O       0.70754693       2.12344189      -1.25477228        8 
O      -0.27073096       1.69279689       0.72530372        8 
C       0.74267544       3.51965222      -0.91102312        6 
C      -3.51041688       0.58757790       1.68561907        6 
C      -0.90558273      -2.15396480      -0.12885850        6 
C       0.03346743      -3.02975100      -0.99247925        6 
C       1.40416367      -2.32348808      -0.76496975        6 
C       0.97522009      -1.13024977       0.12149032        6 
O      -0.04974157      -1.71319176       0.93150793        8 
H      -1.50117518      -1.00191453      -1.91716944        1 
H       0.64251686      -0.12357915      -1.80158245        1 
H       1.34658235       3.67494892      -0.01537752        1 
H      -4.48542365       0.47028333       1.21058217        1 
H       0.04538667      -4.05548261      -0.62153031        1 
H      -0.26944530      -3.05539228      -2.04149220        1 
H       2.09259193      -2.96113258      -0.20678896        1 
H       1.90013340      -2.01248310      -1.68389865        1 
H       1.19260675       4.01727288      -1.76718646        1 
H      -0.26720872       3.89283394      -0.73473552        1 
H      -3.20409835       1.63369999       1.64345093        1 
H      -3.53644071       0.23971696       2.71579178        1 
H      -1.77332502      -2.65825812       0.28841674        1 
C       2.03215450      -0.52694358       1.01954300        6 
O       2.96014415       0.15601250       0.19253063        8 
H       2.52663680      -1.32531551       1.59087748        1 
H       1.55694567       0.16268037       1.72713600        1 
C       3.93265197       0.87187820       0.93064716        6 
H       4.56905784       1.38640436       0.21043112        1 
H       4.55185662       0.19813115       1.53904924        1 
H       3.46138568       1.61112237       1.59263084        1 
