36
Lattice="0.0 0.0 0.0 0.0 0.0 0.0 0.0 0.0 0.0" Properties=species:S:1:pos:R:3:Z:I:1 pbc="F F F"
C      -1.07097466      -0.96355442      -0.83535834        6 
C       0.20976086      -0.09223661      -0.81932256        6 
C      -2.22467974      -0.61274946       0.09573330        6 
C       0.10023331       1.42375386      -0.77369847        6 
O      -1.88427285       0.19342582       1.11050875        8 
O      -3.30744977      -1.14517747       0.00293187        8 
O      -1.17415140       1.85100156      -0.87265528        8 
O       1.04523822       2.16921595      -0.87924842        8 
C      -1.36104871       3.26626903      -1.04863659        6 
C      -2.89980813       0.42917240       2.09968145        6 
C      -0.46428966      -2.26896282      -0.22341756        6 
C       0.65799518      -2.84601876      -1.12055310        6 
C       1.86990575      -1.95129407      -0.72063908        6 
C       1.16240636      -0.89286926       0.15349098        6 
O       0.25172465      -1.72648419       0.89650963        8 
H      -1.48377661      -1.11023562      -1.83205911        1 
H       0.65312340      -0.19618370      -1.81628232        1 
H      -0.84186943       3.61221657      -1.94360601        1 
H      -3.21016510      -0.51029421       2.55934174        1 
H       0.83459713      -3.89575985      -0.88381132        1 
H       0.40693105      -2.78026258      -2.18167934        1 
H       2.58750817      -2.50352649      -0.11213186        1 
H       2.40106516      -1.51415369      -1.56518516        1 
H      -2.43551459       3.40391894      -1.14826109        1 
H      -0.98332348       3.81133075      -0.18227474        1 
H      -3.76843820       0.91175570       1.64821521        1 
H      -2.43881016       1.08255783       2.83719190        1 
H      -1.20901041      -2.98230457       0.12133609        1 
C       2.04170762      -0.10663787       1.10268523        6 
O       3.19251684       0.31029908       0.39115558        8 
H       2.31826419      -0.75734867       1.94461946        1 
H       1.49278482       0.75372130       1.50330826        1 
C       3.81700309       1.45392000       0.94371903        6 
H       4.68996237       1.66785217       0.32660577        1 
H       4.14567314       1.27486205       1.97745930        1 
H       3.14039843       2.31653409       0.91814832        1 
