36
Lattice="0.0 0.0 0.0 0.0 0.0 0.0 0.0 0.0 0.0" Properties=species:S:1:pos:R:3:Z:I:1 pbc="F F F"
C      -1.40299622      -0.49225420      -0.84943792        6 
C       0.09330017      -0.01988509      -0.84630445        6 
C      -2.36035297       0.30105722       0.06103330        6 
C       0.34735974       1.47960458      -0.90347458        6 
O      -3.10689305      -0.51993593       0.83703122        8 
O      -2.53456466       1.49100025       0.03835436        8 
O       1.47657380       1.85219701      -0.26746615        8 
O      -0.36188581       2.25089261      -1.49392233        8 
C       1.81027429       3.24959371      -0.36248191        6 
C      -4.07243366       0.12586713       1.68413639        6 
C      -1.18500794      -1.91123842      -0.27273753        6 
C      -0.24708341      -2.76880504      -1.15614677        6 
C       1.15833286      -2.26756275      -0.71625305        6 
C       0.76182517      -1.05087449       0.14964576        6 
O      -0.36562452      -1.58485214       0.87006609        8 
H      -1.82673756      -0.46603697      -1.85522881        1 
H       0.46863471      -0.29577059      -1.83964590        1 
H       1.01491598       3.86164155       0.06503222        1 
H      -4.79442453       0.68532824       1.08713281        1 
H      -0.38268533      -3.82894270      -0.93970578        1 
H      -0.44143489      -2.62239048      -2.22172131        1 
H       1.66622544      -3.00572381      -0.09326213        1 
H       1.82030291      -2.00415976      -1.54093766        1 
H       2.73303519       3.36524697       0.20220586        1 
H       1.96105367       3.53531142      -1.40456354        1 
H      -3.57549448       0.80814624       2.37532859        1 
H      -4.56240007      -0.67922843       2.22767239        1 
H      -2.08934007      -2.40645867       0.05987141        1 
C       1.80972264      -0.60845339       1.14995064        6 
O       3.04742463      -0.48233810       0.47324927        8 
H       1.87357302      -1.38408820       1.92695689        1 
H       1.52450993       0.33620605       1.62410076        1 
C       4.03741037       0.15235402       1.25415167        6 
H       4.94112941       0.20773957       0.64652865        1 
H       4.25607387      -0.41522970       2.17029157        1 
H       3.72905156       1.16854033       1.53563488        1 
