36
Lattice="0.0 0.0 0.0 0.0 0.0 0.0 0.0 0.0 0.0" Properties=species:S:1:pos:R:3:Z:I:1 pbc="F F F"
C      -1.01930905       1.24878939       0.59676978        6 
C       0.22151346       0.30158575       0.82168807        6 
C      -2.28772393       0.71661471      -0.06428243        6 
C      -0.04884932      -1.19170782       0.79167645        6 
O      -2.55242205      -0.55885163       0.25308163        8 
O      -3.02730204       1.40259058      -0.72801190        8 
O       0.05168236      -1.73579833      -0.43805812        8 
O      -0.37002268      -1.81985629       1.76950635        8 
C      -0.26280181      -3.13433657      -0.52781552        6 
C      -3.76891425      -1.11845107      -0.27447071        6 
C      -0.38269143       2.34038300      -0.29770631        6 
C       0.64260935       3.16391575       0.50823889        6 
C       1.84803282       2.18356940       0.55725367        6 
C       1.26214552       0.94392307      -0.16564445        6 
O       0.43681544       1.55084388      -1.17492216        8 
H      -1.35388907       1.65231689       1.55677536        1 
H       0.56834983       0.45422134       1.84305138        1 
H      -1.29337744      -3.31057730      -0.21618074        1 
H      -3.73064204      -1.14631670      -1.36446832        1 
H       0.89390032       4.08231975      -0.02358957        1 
H       0.26722984       3.43976633       1.49601610        1 
H       2.69415537       2.56657090      -0.01565205        1 
H       2.19584309       1.95538585       1.56466290        1 
H      -0.12760244      -3.39702098      -1.57516683        1 
H       0.40593521      -3.71950774       0.10543974        1 
H      -4.62928995      -0.52752402       0.04157733        1 
H      -3.82252113      -2.12424771       0.13641861        1 
H      -1.10756204       2.90370389      -0.87718955        1 
C       2.28539308       0.03476971      -0.81470619        6 
O       2.92190375      -0.69377976       0.22323824        8 
H       3.01628524       0.64386057      -1.36556658        1 
H       1.79051446      -0.64070391      -1.51738512        1 
C       3.78219553      -1.70577245      -0.26261597        6 
H       4.20637415      -2.21250859       0.60433342        1 
H       4.59798927      -1.28500764      -0.86700741        1 
H       3.23013965      -2.43310246      -0.87385348        1 
