36
Lattice="0.0 0.0 0.0 0.0 0.0 0.0 0.0 0.0 0.0" Properties=species:S:1:pos:R:3:Z:I:1 pbc="F F F"
C      -1.20117846      -1.03262899      -0.59010027        6 
C       0.07465946      -0.11987213      -0.68033261        6 
C      -2.39320673      -0.43314828       0.13957456        6 
C      -0.06068055       1.26623041      -0.08436758        6 
O      -3.00244834       0.48177489      -0.64888803        8 
O      -2.76629704      -0.72026994       1.24570562        8 
O       0.63792144       2.16012961      -0.81590771        8 
O      -0.67638584       1.56362355       0.90957350        8 
C       0.63813170       3.51154928      -0.32441000        6 
C      -4.06501739       1.22824289      -0.02707646        6 
C      -0.64063077      -2.26157126       0.16426173        6 
C       0.26691174      -3.08134134      -0.77455930        6 
C       1.53071010      -2.17559390      -0.83860114        6 
C       1.11722462      -1.01269911       0.09846924        6 
O       0.30037888      -1.66551114       1.07228231        8 
H      -1.53567529      -1.28555029      -1.59803806        1 
H       0.39151725       0.00451454      -1.71313334        1 
H       1.05790451       3.55327862       0.68212112        1 
H      -3.67815320       1.77063660       0.83666361        1 
H       0.49425778      -4.05009783      -0.32736811        1 
H      -0.18937157      -3.25913402      -1.75074574        1 
H       2.40735370      -2.67957416      -0.42848513        1 
H       1.78128619      -1.83201092      -1.84183504        1 
H       1.25662653       4.07273800      -1.02128721        1 
H      -0.37742275       3.91024463      -0.30362763        1 
H      -4.86719651       0.56107745       0.29182162        1 
H      -4.42099102       1.91788922      -0.78964106        1 
H      -1.38516151      -2.81399638       0.73011482        1 
C       2.25791131      -0.30195510       0.79543616        6 
O       3.13517266       0.19713174      -0.19743836        8 
H       2.77107257      -1.02315931       1.44731533        1 
H       1.87144734       0.50851208       1.42848138        1 
C       4.17926651       0.98830393       0.33381829        6 
H       4.79747125       1.30958731      -0.50455940        1 
H       4.79879657       0.41701969       1.03933268        1 
H       3.78528485       1.87485543       0.85039510        1 
