36
Lattice="0.0 0.0 0.0 0.0 0.0 0.0 0.0 0.0 0.0" Properties=species:S:1:pos:R:3:Z:I:1 pbc="F F F"
C      -0.99630352      -1.05096406      -0.71621025        6 
C       0.26445823      -0.11183415      -0.72039282        6 
C      -2.24812359      -0.67254076       0.06822843        6 
C       0.02020619       1.34746531      -0.37415977        6 
O      -2.24100183       0.56803067       0.56990731        8 
O      -3.15665131      -1.45205864       0.23479454        8 
O      -0.63888746       1.92628285      -1.40669119        8 
O       0.37779518       1.95550476       0.60148245        8 
C      -1.02251942       3.29690233      -1.21770409        6 
C      -3.37066000       0.94400433       1.38049819        6 
C      -0.39301754      -2.31511082      -0.04130746        6 
C       0.64988747      -2.97793823      -0.96432416        6 
C       1.86733300      -2.02871025      -0.77653677        6 
C       1.26734586      -0.94272572       0.15168248        6 
O       0.40293611      -1.72449083       0.99853535        8 
H      -1.33710345      -1.26231750      -1.73146126        1 
H       0.63710237      -0.07541127      -1.74501217        1 
H      -0.14465299       3.92634312      -1.06447656        1 
H      -3.49979090       0.23570419       2.19908278        1 
H       0.87177508      -3.98919649      -0.62107956        1 
H       0.30386023      -3.04218398      -1.99820826        1 
H       2.68635843      -2.53365490      -0.26116054        1 
H       2.25757890      -1.61576628      -1.70655187        1 
H      -1.54325951       3.58243658      -2.12938243        1 
H      -1.68493169       3.38745956      -0.35482234        1 
H      -4.27831738       0.96868067       0.77566367        1 
H      -3.13147704       1.93374684       1.76242411        1 
H      -1.13945647      -2.97683924       0.38842891        1 
C       2.28250299      -0.19714616       0.99030403        6 
O       3.09154748       0.54752813       0.09143757        8 
H       2.88891863      -0.92691734       1.54631429        1 
H       1.77768372       0.46247530       1.69913003        1 
C       3.87794629       1.52932860       0.74092229        6 
H       4.44646848       2.04732215      -0.03216249        1 
H       4.57843682       1.07376160       1.45498211        1 
H       3.24299956       2.25060031       1.27020130        1 
