36
Lattice="0.0 0.0 0.0 0.0 0.0 0.0 0.0 0.0 0.0" Properties=species:S:1:pos:R:3:Z:I:1 pbc="F F F"
C      -1.23474591      -0.55156947      -0.45074116        6 
C       0.18511269       0.06941910      -0.56609009        6 
C      -2.42140613       0.36026903      -0.22066167        6 
C       0.41230677       1.37662227       0.18223286        6 
O      -3.55767018      -0.37267707      -0.35139759        8 
O      -2.42401499       1.53112953       0.05244528        8 
O       1.06026580       2.25717219      -0.61779883        8 
O       0.10127037       1.61903357       1.31771606        8 
C       1.33841408       3.53884995      -0.02784194        6 
C      -4.79246089       0.33006163      -0.11886281        6 
C      -1.01776089      -1.72557078       0.56517691        6 
C      -0.50138513      -2.92981915      -0.24100371        6 
C       0.89105901      -2.38301428      -0.67782658        6 
C       0.99634100      -1.07246606       0.15724872        6 
O       0.15338843      -1.33756868       1.28720255        8 
H      -1.46507176      -1.00742333      -1.41818069        1 
H       0.49627580       0.19596073      -1.59971413        1 
H       1.99262307       3.42836567       0.83905043        1 
H      -4.92163743       1.12798063      -0.85192171        1 
H      -0.40007652      -3.79874880       0.41151911        1 
H      -1.14926373      -3.19996372      -1.07705759        1 
H       1.69901556      -3.06544061      -0.41118215        1 
H       0.96457261      -2.18924119      -1.74850372        1 
H       1.83104843       4.11646381      -0.80717413        1 
H       0.41121832       4.02147631       0.28452047        1 
H      -4.80451781       0.75917018       0.88412815        1 
H      -5.57569985      -0.41728653      -0.22641284        1 
H      -1.83965184      -1.90597950       1.25260503        1 
C       2.39278311      -0.72424854       0.62664692        6 
O       3.18037611      -0.48035906      -0.52527423        8 
H       2.79561195      -1.56684052       1.20715625        1 
H       2.36769902       0.15443974       1.28384548        1 
C       4.48373813      -0.02499015      -0.21840094        6 
H       4.99830060       0.13864584      -1.16533833        1 
H       5.04080379      -0.76700877       0.37063306        1 
H       4.45296277       0.91933814       0.34211679        1 
