36
Lattice="0.0 0.0 0.0 0.0 0.0 0.0 0.0 0.0 0.0" Properties=species:S:1:pos:R:3:Z:I:1 pbc="F F F"
C      -0.96327590       1.03912440       0.79620022        6 
C       0.26444190       0.07027304       0.78866427        6 
C      -2.25569488       0.59788023       0.13139406        6 
C       0.03185278      -1.42025114       0.59755466        6 
O      -2.07292851       0.14375340      -1.12068827        8 
O      -3.34410319       0.74498447       0.63607522        8 
O      -1.26630403      -1.75645438       0.72215313        8 
O       0.91329618      -2.24204642       0.52284502        8 
C      -1.57348816      -3.16180196       0.70076002        6 
C      -3.25562050      -0.26969554      -1.82176675        6 
C      -0.35835289       2.23114050      -0.01243409        6 
C       0.72440794       2.94038879       0.82915577        6 
C       1.91881385       1.95274490       0.67767553        6 
C       1.27239145       0.82006795      -0.15922564        6 
O       0.40055796       1.56138693      -1.02615715        8 
H      -1.23849257       1.33151765       1.80771006        1 
H       0.69859596       0.08170672       1.79332177        1 
H      -1.03777326      -3.68149353       1.49623859        1 
H      -3.96757339       0.55338686      -1.90011516        1 
H       0.95617944       3.91716642       0.40247495        1 
H       0.41327969       3.09077017       1.86490524        1 
H       2.73567531       2.40086908       0.11043162        1 
H       2.32400196       1.59546262       1.62367480        1 
H      -2.64826092      -3.22221979       0.85637972        1 
H      -1.29750246      -3.59412874      -0.26219426        1 
H      -3.73197830      -1.10463149      -1.30353700        1 
H      -2.91492518      -0.57629828      -2.80846750        1 
H      -1.09692217       2.88140736      -0.47689149        1 
C       2.24650938       0.00019341      -0.97936342        6 
O       3.28441608      -0.42123703      -0.11444201        8 
H       2.64231815       0.63698290      -1.78383852        1 
H       1.74384403      -0.85718133      -1.43960435        1 
C       4.01827608      -1.52348144      -0.61514628        6 
H       4.79294614      -1.74944633       0.11812001        1 
H       4.49543982      -1.28515999      -1.57655517        1 
H       3.36959653      -2.39918782      -0.73644151        1 
