36
Lattice="0.0 0.0 0.0 0.0 0.0 0.0 0.0 0.0 0.0" Properties=species:S:1:pos:R:3:Z:I:1 pbc="F F F"
C      -1.04786594      -0.90300298      -0.85598763        6 
C       0.29556858      -0.06851062      -0.76960101        6 
C      -2.23033183      -0.18709394      -0.22038510        6 
C       0.08270035       1.33795469      -0.24781355        6 
O      -2.52353208      -0.63243745       1.00772948        8 
O      -2.84827633       0.68734450      -0.78400107        8 
O      -0.00993999       2.20112199      -1.27503527        8 
O      -0.01571929       1.66409168       0.91179182        8 
C      -0.36047331       3.55456356      -0.93302499        6 
C      -3.58049824       0.05894101       1.69896233        6 
C      -0.60609484      -2.20780322      -0.15150283        6 
C       0.39015925      -2.96820669      -1.05582859        6 
C       1.69072229      -2.14085116      -0.83787303        6 
C       1.17962700      -1.02056232       0.10258874        6 
O       0.22464314      -1.72258320       0.91143466        8 
H      -1.32081155      -1.05641081      -1.90019816        1 
H       0.71866891       0.03295123      -1.76646244        1 
H       0.38109882       3.98324087      -0.25753518        1 
H      -4.51316869      -0.00670748       1.13674822        1 
H       0.50790977      -3.99606683      -0.71018756        1 
H       0.06680640      -2.99966345      -2.09874573        1 
H       2.45283921      -2.72799325      -0.32218138        1 
H       2.12738144      -1.75241339      -1.75810905        1 
H      -0.37960492       4.09484892      -1.87671035        1 
H      -1.34328147       3.57437990      -0.46011965        1 
H      -3.31104755       1.10655649       1.83805427        1 
H      -3.67139677      -0.44282472       2.65947191        1 
H      -1.41909437      -2.79852681       0.26109681        1 
C       2.21692423      -0.36384216       0.98646396        6 
O       3.03571100       0.43877429       0.14846113        8 
H       2.81318433      -1.13916471       1.48804201        1 
H       1.71780252       0.24609714       1.74532990        1 
C       3.94415669       1.24382025       0.87634388        6 
H       4.51522872       1.82197521       0.14958340        1 
H       4.63635329       0.63096185       1.47039877        1 
H       3.41167581       1.92925506       1.54884179        1 
