36
Lattice="0.0 0.0 0.0 0.0 0.0 0.0 0.0 0.0 0.0" Properties=species:S:1:pos:R:3:Z:I:1 pbc="F F F"
C      -1.19571256      -0.60178549      -0.44845954        6 
C       0.17238751       0.10891296      -0.60834818        6 
C      -2.44744877       0.24155085      -0.56067720        6 
C       0.22897236       1.43817111       0.14556569        6 
O      -3.46799385      -0.31060383       0.13239095        8 
O      -2.55452097       1.23539859      -1.23155557        8 
O       1.44811477       2.01172643       0.01784126        8 
O      -0.69267452       1.99011257       0.68763916        8 
C       1.59156715       3.31251867       0.61619892        6 
C      -4.72835974       0.38181107       0.04796968        6 
C      -0.95071745      -1.57473328       0.74652008        6 
C      -0.43718342      -2.88441811       0.13111321        6 
C       0.88782165      -2.36429214      -0.50218204        6 
C       1.04171680      -0.95958302       0.16664620        6 
O       0.24946956      -1.07408102       1.36472515        8 
H      -1.30576349      -1.23045919      -1.34236848        1 
H       0.48867477       0.25873382      -1.63861524        1 
H       1.43904414       3.25630695       1.69546146        1 
H      -5.08253789       0.40475922      -0.98402136        1 
H      -0.24336950      -3.61928898       0.91426276        1 
H      -1.12799940      -3.31988157      -0.59397555        1 
H       1.73965108      -2.99692023      -0.25323931        1 
H       0.84580336      -2.28937185      -1.58979281        1 
H       2.60847960       3.62511206       0.38804662        1 
H       0.86941390       4.00934405       0.18872395        1 
H      -4.62198717       1.40315549       0.41514176        1 
H      -5.41254408      -0.18476717       0.67595466        1 
H      -1.75043654      -1.63827251       1.47725085        1 
C       2.47384661      -0.62913459       0.53144124        6 
O       3.20740590      -0.51436714      -0.67434676        8 
H       2.86938757      -1.44763273       1.15124819        1 
H       2.53169617       0.29536775       1.11160118        1 
C       4.52842341      -0.05429648      -0.46931655        6 
H       5.00434262       0.00714263      -1.44821459        1 
H       5.10145693      -0.74499423       0.16578787        1 
H       4.53259763       0.94033007      -0.00286511        1 
