36
Lattice="0.0 0.0 0.0 0.0 0.0 0.0 0.0 0.0 0.0" Properties=species:S:1:pos:R:3:Z:I:1 pbc="F F F"
C      -1.24918146      -0.65176043      -0.71028995        6 
C       0.24535823      -0.19954696      -0.84019106        6 
C      -2.18748652       0.32417316      -0.01371716        6 
C       0.43052746       1.31340805      -0.84861641        6 
O      -3.39011593      -0.26465782       0.17717928        8 
O      -1.95893633       1.46413610       0.29838061        8 
O       0.94417754       1.83190221       0.27568896        8 
O       0.12205009       1.97406183      -1.81139505        8 
C       0.97524506       3.26899198       0.33679900        6 
C      -4.40441209       0.55147797       0.79287466        6 
C      -1.07697800      -1.92068849       0.17326433        6 
C      -0.33015925      -3.02477296      -0.60421491        6 
C       1.13523150      -2.51027460      -0.52881711        6 
C       0.94457529      -1.15187970       0.19233538        6 
O      -0.10669589      -1.46607297       1.12868630        8 
H      -1.69200562      -0.88327758      -1.68050305        1 
H       0.58150912      -0.47497822      -1.84034506        1 
H      -0.03988141       3.65925261       0.25747518        1 
H      -4.60812355       1.43181325       0.18130539        1 
H      -0.44570404      -3.98641170      -0.10219742        1 
H      -0.70119892      -3.13278016      -1.62580438        1 
H       1.75381625      -3.16334054       0.08940940        1 
H       1.61809255      -2.40466592      -1.49996860        1 
H       1.40562829       3.50782759       1.30727160        1 
H       1.58921565       3.67465282      -0.46850035        1 
H      -4.08596058       0.86924292       1.78673152        1 
H      -5.28567777      -0.08290498       0.85730682        1 
H      -1.98268945      -2.23269864       0.68474763        1 
C       2.16446583      -0.65587056       0.93596956        6 
O       3.13654794      -0.31290126      -0.03968647        8 
H       2.53709310      -1.45740398       1.59044359        1 
H       1.90515167       0.20924075       1.55030347        1 
C       4.24041225       0.38251744       0.50517845        6 
H       4.92004457       0.60429273      -0.31796509        1 
H       4.76975614      -0.22436556       1.25332769        1 
H       3.92024167       1.32260007       0.97401116        1 
