36
Lattice="0.0 0.0 0.0 0.0 0.0 0.0 0.0 0.0 0.0" Properties=species:S:1:pos:R:3:Z:I:1 pbc="F F F"
C      -0.97660644      -1.02442151      -0.53484735        6 
C       0.27892282      -0.09394389      -0.69883160        6 
C      -2.17288770      -0.49002653       0.23789907        6 
C       0.16500012       1.40777460      -0.47881788        6 
O      -3.22612299      -0.31714500      -0.59847132        8 
O      -2.22867238      -0.28545116       1.42199884        8 
O      -1.05817862       1.81210295      -0.10463519        8 
O       1.06793153       2.17706134      -0.70933364        8 
C      -1.24572122       3.22753759       0.07072824        6 
C      -4.42295387       0.20010320       0.00628711        6 
C      -0.34213452      -2.18779131       0.28514198        6 
C       0.61843203      -3.00201351      -0.60546378        6 
C       1.85380397      -2.05920914      -0.65870319        6 
C       1.35132219      -0.85367036       0.17569310        6 
O       0.54182875      -1.49119321       1.17142832        8 
H      -1.33265163      -1.35502353      -1.50943944        1 
H       0.60435973      -0.14526688      -1.74017842        1 
H      -1.07834027       3.75299793      -0.87067559        1 
H      -4.22577677       1.16847649       0.46930596        1 
H       0.86102174      -3.95286180      -0.12881111        1 
H       0.19358786      -3.21763047      -1.58826067        1 
H       2.71853339      -2.50678970      -0.16659673        1 
H       2.15403576      -1.77152335      -1.66541458        1 
H      -2.27625468       3.34140222       0.39922108        1 
H      -0.55879172       3.61028845       0.82621719        1 
H      -4.79907637      -0.48720434       0.76599572        1 
H      -5.14000963       0.30185011      -0.80571446        1 
H      -1.05565926      -2.76508223       0.86829902        1 
C       2.44553905      -0.04509992       0.84087826        6 
O       3.40561330       0.28060520      -0.14693333        8 
H       2.89414985      -0.66058537       1.63378532        1 
H       2.03614552       0.85806560       1.30773057        1 
C       4.22772456       1.37589544       0.20964330        6 
H       4.92979231       1.52643489      -0.61082100        1 
H       4.79362792       1.17304558       1.13038905        1 
H       3.62903307       2.28495389       0.34192058        1 
