36
Lattice="0.0 0.0 0.0 0.0 0.0 0.0 0.0 0.0 0.0" Properties=species:S:1:pos:R:3:Z:I:1 pbc="F F F"
C      -1.16381653      -0.99985568      -0.43026641        6 
C       0.07741802      -0.07152053      -0.56397683        6 
C      -2.51319846      -0.39111635      -0.10905696        6 
C      -0.02792991       1.22210439       0.22172141        6 
O      -2.66130436       0.81258515      -0.69591954        8 
O      -3.41342538      -0.98671769       0.43028491        8 
O       0.74325030       2.18108342      -0.33835633        8 
O      -0.67859599       1.39674589       1.22112871        8 
C       0.75690560       3.44755950       0.34288026        6 
C      -3.93526095       1.45585121      -0.51206001        6 
C      -0.66255362      -2.11661156       0.52474634        6 
C       0.11273762      -3.14207419      -0.31947583        6 
C       1.33823805      -2.27947747      -0.74400171        6 
C       1.14511638      -1.00391117       0.12761384        6 
O       0.40180626      -1.48425077       1.25480761        8 
H      -1.34847928      -1.44152385      -1.41685833        1 
H       0.34549315       0.15369714      -1.59308721        1 
H       1.14680634       3.33344004       1.35597141        1 
H      -4.10285249       1.65647517       0.54700751        1 
H       0.41895665      -3.98299451       0.30468273        1 
H      -0.46321829      -3.52925651      -1.16204135        1 
H       2.28389182      -2.76267410      -0.49596968        1 
H       1.35817289      -2.04443058      -1.80862154        1 
H       1.40710020       4.08845141      -0.24871586        1 
H      -0.25051771       3.86345216       0.39473819        1 
H      -4.74115322       0.82806768      -0.89508733        1 
H      -3.87315801       2.38623348      -1.07224474        1 
H      -1.41443291      -2.50090462       1.20776601        1 
C       2.42627612      -0.34784442       0.59611505        6 
O       3.14860761       0.05107735      -0.55336375        8 
H       3.00086315      -1.07044881       1.19351410        1 
H       2.20591784       0.51323375       1.24057453        1 
C       4.23956513       0.90027422      -0.25643671        6 
H       4.71620841       1.15432629      -1.20329103        1 
H       4.97384785       0.40322171       0.39298019        1 
H       3.89922689       1.82253519       0.23432026        1 
