36
Lattice="0.0 0.0 0.0 0.0 0.0 0.0 0.0 0.0 0.0" Properties=species:S:1:pos:R:3:Z:I:1 pbc="F F F"
C      -0.91416458       1.05593363       0.49682482        6 
C       0.27972308       0.03560490       0.64421098        6 
C      -2.19238793       0.57725515      -0.16919319        6 
C       0.07256708      -1.42648393       0.27066853        6 
O      -3.15263862       0.34942573       0.75680342        8 
O      -2.37657587       0.47563869      -1.35519613        8 
O      -1.21980435      -1.75793359       0.11703420        8 
O       0.96289389      -2.24109727       0.21818133        8 
C      -1.49717213      -3.13593433      -0.19359659        6 
C      -4.40551401      -0.13560372       0.24783799        6 
C      -0.24453490       2.15791519      -0.37747870        6 
C       0.69698979       3.00120684       0.49896789        6 
C       1.86590188       2.00143034       0.71521382        6 
C       1.41071821       0.79047041      -0.14768421        6 
O       0.66315894       1.41400497      -1.20014977        8 
H      -1.18685800       1.43603784       1.48074121        1 
H       0.56728216      -0.02321381       1.69690001        1 
H      -1.15220981      -3.78444738       0.61279746        1 
H      -4.25961647      -1.08010906      -0.27938661        1 
H       1.02600568       3.88492493      -0.04980830        1 
H       0.22641797       3.33251816       1.42681618        1 
H       2.80757629       2.39335561       0.32879661        1 
H       2.02771823       1.72588160       1.75703201        1 
H      -2.57778925      -3.19529352      -0.30055399        1 
H      -1.00419675      -3.41977773      -1.12370838        1 
H      -4.85059338       0.58825659      -0.43679813        1 
H      -5.04035896      -0.27826813       1.11985822        1 
H      -0.93791363       2.70459152      -1.01112920        1 
C       2.55901115      -0.00665324      -0.73023410        6 
O       3.38344181      -0.41496045       0.34788816        8 
H       3.11536048       0.64809958      -1.41674431        1 
H       2.19345055      -0.86784185      -1.29607803        1 
C       4.23688900      -1.49528599       0.01843165        6 
H       4.82820530      -1.71692657       0.90752440        1 
H       4.91751950      -1.23440471      -0.80488804        1 
H       3.65271023      -2.38060066      -0.25813203        1 
