36
Lattice="0.0 0.0 0.0 0.0 0.0 0.0 0.0 0.0 0.0" Properties=species:S:1:pos:R:3:Z:I:1 pbc="F F F"
C      -1.01716993      -1.06142048      -0.79254686        6 
C       0.31616847      -0.22468148      -0.89361337        6 
C      -2.27267888      -0.26988968      -0.45732133        6 
C       0.20920991       1.28411038      -0.78030670        6 
O      -2.56963957      -0.26831278       0.85091260        8 
O      -2.98493421       0.22039760      -1.30329142        8 
O      -0.53631322       1.67546665       0.27295331        8 
O       0.75375896       2.05662783      -1.52959064        8 
C      -0.71804502       3.09374979       0.43033257        6 
C      -3.73769973       0.47729317       1.22838668        6 
C      -0.61659636      -2.10091215       0.28752296        6 
C       0.39124248      -3.10546198      -0.31210043        6 
C       1.69344405      -2.25300402      -0.33145559        6 
C       1.17808007      -0.90687462       0.23423184        6 
O       0.19404255      -1.32726002       1.18399212        8 
H      -1.22650008      -1.52606721      -1.75602456        1 
H       0.78518617      -0.38749243      -1.86134237        1 
H      -1.25119972       3.50196954      -0.42966535        1 
H      -4.62970044       0.06417068       0.75446640        1 
H       0.49200978      -3.97508159       0.33888392        1 
H       0.09054468      -3.45860521      -1.30082770        1 
H       2.44926625      -2.66306539       0.34047610        1 
H       2.14170057      -2.14816426      -1.31868615        1 
H      -1.30528043       3.21041379       1.33860374        1 
H       0.24551078       3.59583221       0.52806612        1 
H      -3.62906203       1.52243945       0.93359908        1 
H      -3.80061461       0.38827899       2.31069052        1 
H      -1.45034741      -2.53157301       0.83427577        1 
C       2.21498963      -0.04263339       0.91853244        6 
O       3.21723936       0.25701757      -0.03414896        8 
H       2.63299082      -0.59194093       1.77452949        1 
H       1.74757116       0.87339208       1.30353390        1 
C       4.13389527       1.23867917       0.41016293        6 
H       4.86085917       1.38231195      -0.38887665        1 
H       4.65713747       0.91648721       1.32137230        1 
H       3.62707538       2.19280229       0.60819876        1 
