36
Lattice="0.0 0.0 0.0 0.0 0.0 0.0 0.0 0.0 0.0" Properties=species:S:1:pos:R:3:Z:I:1 pbc="F F F"
C      -0.92916028       1.16960605       0.46567396        6 
C       0.21668225       0.13250957       0.71780921        6 
C      -2.29639728       0.61900678       0.11419175        6 
C      -0.04060766      -1.29543829       0.27629092        6 
O      -2.66288123      -0.33130917       1.00193746        8 
O      -3.01388892       1.02500292      -0.76430450        8 
O      -0.75485273      -1.36330569      -0.86374814        8 
O       0.41168799      -2.26604329       0.83445708        8 
C      -1.01612541      -2.67807122      -1.38005455        6 
C      -3.94239132      -0.94908711       0.77715862        6 
C      -0.30821236       2.09545598      -0.60940994        6 
C       0.64642335       3.07879579       0.09090854        6 
C       1.79023674       2.11196350       0.51791430        6 
C       1.34885357       0.78500487      -0.16049326        6 
O       0.61078124       1.23345312      -1.30352301        8 
H      -1.09523423       1.72948653       1.39189011        1 
H       0.51231106       0.07645489       1.76229790        1 
H      -1.56723268      -3.27213495      -0.64872542        1 
H      -3.96838863      -1.41269642      -0.21052677        1 
H       1.00283084       3.82620159      -0.61973393        1 
H       0.18128843       3.60089277       0.92989721        1 
H       2.75742939       2.42821062       0.12501400        1 
H       1.89176981       2.00348967       1.59785707        1 
H      -1.60968459      -2.52234798      -2.27819768        1 
H      -0.08156911      -3.18715159      -1.62141015        1 
H      -4.74296574      -0.21120430       0.84765950        1 
H      -4.04280993      -1.70072903       1.55692381        1 
H      -1.02459625       2.51313662      -1.31066991        1 
C       2.48182748      -0.12197400      -0.59278177        6 
O       3.22366759      -0.45628913       0.56358320        8 
H       3.10696577       0.40933334      -1.32513685        1 
H       2.09136517      -1.02408546      -1.08221866        1 
C       4.13694325      -1.51724909       0.35101300        6 
H       4.65537283      -1.68724999       1.29450797        1 
H       4.87376636      -1.26262205      -0.42389933        1 
H       3.61015162      -2.43519561       0.05949281        1 
