36
Lattice="0.0 0.0 0.0 0.0 0.0 0.0 0.0 0.0 0.0" Properties=species:S:1:pos:R:3:Z:I:1 pbc="F F F"
C      -0.96724799      -0.97248530      -0.71157166        6 
C       0.34283681      -0.11336663      -0.81452343        6 
C      -2.24512098      -0.16028559      -0.60659301        6 
C       0.23605683       1.36101769      -0.47160172        6 
O      -2.97288647      -0.45661843       0.48396462        8 
O      -2.60164550       0.62112688      -1.45619985        8 
O      -0.62486268       1.59833490       0.53655435        8 
O       0.90777294       2.22052933      -0.98833330        8 
C      -0.79923734       2.97417904       0.91513013        6 
C      -4.20366842       0.27424114       0.63439030        6 
C      -0.62179012      -1.94521706       0.44971319        6 
C       0.28727401      -3.05864875      -0.10226291        6 
C       1.59946669      -2.26181306      -0.35467279        6 
C       1.23770607      -0.87024658       0.23339765        6 
O       0.29052166      -1.18651636       1.26080166        8 
H      -1.08820006      -1.52699469      -1.64635860        1 
H       0.78789445      -0.15477615      -1.80548903        1 
H      -1.21501791       3.54255590       0.08165022        1 
H      -4.86943492       0.08047234      -0.20790518        1 
H       0.43227925      -3.82956005       0.65590172        1 
H      -0.11530147      -3.53323575      -0.99946755        1 
H       2.44266629      -2.68869195       0.18993596        1 
H       1.88172690      -2.19924578      -1.40527863        1 
H      -1.49146162       2.95755351       1.75411472        1 
H       0.15373251       3.41368987       1.21254225        1 
H      -4.00142239       1.34476119       0.69195722        1 
H      -4.64203399      -0.08468334       1.56281584        1 
H      -1.46924612      -2.26093894       1.04949601        1 
C       2.40506156      -0.09978193       0.81351173        6 
O       3.35197070       0.06988171      -0.22276350        8 
H       2.83114221      -0.67039971       1.65165239        1 
H       2.07256060       0.87043715       1.20538898        1 
C       4.34349549       1.03573382       0.07407697        6 
H       5.01542849       1.07647146      -0.78312430        1 
H       4.91986526       0.76029169       0.96882640        1 
H       3.89468328       2.02596154       0.22480843        1 
