36
Lattice="0.0 0.0 0.0 0.0 0.0 0.0 0.0 0.0 0.0" Properties=species:S:1:pos:R:3:Z:I:1 pbc="F F F"
C      -1.01449519      -1.06196274      -0.32874794        6 
C       0.13342202       0.00128672      -0.56171585        6 
C      -2.42161488      -0.58436910      -0.02287716        6 
C      -0.24497816       1.40006064      -0.06459755        6 
O      -2.96223571       0.00256313      -1.10150521        8 
O      -3.04042850      -0.84238318       0.98259594        8 
O       0.49860324       1.85654938       0.95683056        8 
O      -1.16125604       2.03382643      -0.53000612        8 
C       0.12844929       3.14722195       1.47690680        6 
C      -4.28938088       0.53281054      -0.94794795        6 
C      -0.37625184      -1.99843328       0.73358168        6 
C       0.47115169      -3.03017100      -0.02474628        6 
C       1.55551483      -2.08960825      -0.61881962        6 
C       1.29400720      -0.75301986       0.15508130        6 
O       0.63697713      -1.19018957       1.35736317        8 
H      -1.13280369      -1.60771473      -1.26866950        1 
H       0.32264130       0.12037259      -1.62837525        1 
H      -0.89652155       3.12422694       1.84918175        1 
H      -4.29318230       1.31838118      -0.19088428        1 
H       0.90341445      -3.74726188       0.67496798        1 
H      -0.09308544      -3.58083150      -0.78052670        1 
H       2.56462369      -2.44891443      -0.41634600        1 
H       1.46599181      -1.95586084      -1.69788717        1 
H       0.82636562       3.33979555       2.28883063        1 
H       0.21416118       3.91072972       0.70251414        1 
H      -4.98818786      -0.25477416      -0.66132724        1 
H      -4.54907297       0.94524208      -1.92012461        1 
H      -1.06805361      -2.36756349       1.48519574        1 
C       2.57405080      -0.00603655       0.48135463        6 
O       3.04656356       0.55568730      -0.73475250        8 
H       3.30565423      -0.72080808       0.88555640        1 
H       2.39442958       0.77001736       1.22645235        1 
C       4.25408369       1.27472962      -0.57734146        6 
H       4.53271013       1.65616447      -1.55999294        1 
H       5.05979497       0.62842549      -0.20183232        1 
H       4.13028746       2.11946453       0.11460008        1 
