36
Lattice="0.0 0.0 0.0 0.0 0.0 0.0 0.0 0.0 0.0" Properties=species:S:1:pos:R:3:Z:I:1 pbc="F F F"
C      -0.96455781       1.18564394       0.40468324        6 
C       0.21969877       0.17289281       0.70104998        6 
C      -2.24265330       0.53128159      -0.07954478        6 
C      -0.17292568      -1.26727459       0.40669042        6 
O      -2.99448840       0.14852871       0.96963299        8 
O      -2.57156255       0.38691439      -1.23163485        8 
O       0.13289263      -1.67034892      -0.83664679        8 
O      -0.77952715      -1.95296236       1.19543641        8 
C      -0.33766074      -2.97563104      -1.21702716        6 
C      -4.19161044      -0.58911479       0.66452266        6 
C      -0.30594178       2.12574786      -0.63825730        6 
C       0.60082553       3.11585036       0.11442273        6 
C       1.74556256       2.16272220       0.56533435        6 
C       1.35128171       0.83152274      -0.14425882        6 
O       0.64527281       1.28704558      -1.30758206        8 
H      -1.21131118       1.71723652       1.32386594        1 
H       0.45751501       0.18459814       1.76253212        1 
H      -1.42760935      -3.00607166      -1.18132100        1 
H      -3.93712547      -1.52770709       0.16984576        1 
H       0.96738584       3.88243241      -0.57025870        1 
H       0.09430946       3.61346375       0.94422010        1 
H       2.71821184       2.50448669       0.20826017        1 
H       1.81095949       2.04670924       1.64785986        1 
H       0.01204148      -3.12113771      -2.23655498        1 
H       0.06881269      -3.74000299      -0.55313811        1 
H      -4.84971951      -0.00404929       0.02050940        1 
H      -4.66297680      -0.78460466       1.62476173        1 
H      -0.99536123       2.54423509      -1.36665898        1 
C       2.52005731      -0.04522920      -0.55007796        6 
O       2.97120871      -0.71500054       0.61742364        8 
H       3.31865395       0.58254246      -0.97017894        1 
H       2.20239753      -0.76152603      -1.31234819        1 
C       4.03294240      -1.61410965       0.36078558        6 
H       4.28877600      -2.08965205       1.30773237        1 
H       4.91682171      -1.09015367      -0.02914028        1 
H       3.73370028      -2.38572522      -0.36187363        1 
