36
Lattice="0.0 0.0 0.0 0.0 0.0 0.0 0.0 0.0 0.0" Properties=species:S:1:pos:R:3:Z:I:1 pbc="F F F"
C      -0.94625776       1.16619870       0.48081351        6 
C       0.21695727       0.14766736       0.73344260        6 
C      -2.33212753       0.65052078       0.14235990        6 
C      -0.06128508      -1.29625837       0.35826700        6 
O      -2.59445735      -0.52168805       0.74936471        8 
O      -3.15592721       1.28070957      -0.47460012        8 
O      -0.48076624      -1.42139387      -0.91809653        8 
O       0.10462826      -2.23432784       1.09831274        8 
C      -0.81317465      -2.75166561      -1.34499317        6 
C      -3.91140640      -1.06845415       0.55371541        6 
C      -0.33384958       2.11196298      -0.58556381        6 
C       0.62206573       3.09099735       0.12007444        6 
C       1.77977990       2.12700604       0.51520737        6 
C       1.32995973       0.80241264      -0.16239788        6 
O       0.57912330       1.26027795      -1.29516114        8 
H      -1.11701933       1.72563633       1.40741837        1 
H       0.51756754       0.12414929       1.77770236        1 
H      -1.62466457      -3.15263575      -0.73470664        1 
H      -4.09226518      -1.24571729      -0.50771010        1 
H       0.96297855       3.85289082      -0.58274028        1 
H       0.16262367       3.59530082       0.97276176        1 
H       2.73537473       2.45181508       0.10113119        1 
H       1.90664961       2.01317627       1.59188308        1 
H      -1.12448852      -2.65397984      -2.38281180        1 
H       0.05207109      -3.41170124      -1.26388424        1 
H      -4.66986642      -0.38518682       0.93836875        1 
H      -3.91881530      -2.00429743       1.10782954        1 
H      -1.05814427       2.54082867      -1.27199499        1 
C       2.45761043      -0.10210790      -0.61339009        6 
O       3.17761259      -0.48846007       0.54234892        8 
H       3.10135702       0.44789291      -1.31534520        1 
H       2.06082978      -0.97912102      -1.14049510        1 
C       4.15212450      -1.48147043       0.28427165        6 
H       4.63672175      -1.70978669       1.23340179        1 
H       4.90804087      -1.12612269      -0.43025359        1 
H       3.69035938      -2.39607761      -0.11192946        1 
