36
Lattice="0.0 0.0 0.0 0.0 0.0 0.0 0.0 0.0 0.0" Properties=species:S:1:pos:R:3:Z:I:1 pbc="F F F"
C      -1.02814627      -1.02635205      -0.44972223        6 
C       0.22442215      -0.10463039      -0.72403966        6 
C      -2.30011889      -0.37221319       0.05824785        6 
C       0.10952530       1.38510530      -0.44611352        6 
O      -3.20364354      -0.29022590      -0.95217036        8 
O      -2.51550821       0.03896237       1.16779053        8 
O      -0.27394664       1.65703136       0.80790732        8 
O       0.39875186       2.23462351      -1.25711504        8 
C      -0.41801535       3.04346783       1.15472783        6 
C      -4.45973179       0.33304568      -0.62722998        6 
C      -0.43945166      -2.02273225       0.59635860        6 
C       0.43555610      -3.05164287      -0.14376420        6 
C       1.66421968      -2.17026492      -0.51423119        6 
C       1.29811062      -0.82481383       0.17096156        6 
O       0.52791280      -1.23981070       1.30262180        8 
H      -1.28850313      -1.54140927      -1.37322798        1 
H       0.50297083      -0.16336502      -1.77357528        1 
H      -1.12847283       3.53120856       0.48560442        1 
H      -4.30143855       1.35813557      -0.28825705        1 
H       0.71708237      -3.86092640       0.53180647        1 
H      -0.06416559      -3.48837996      -1.01067626        1 
H       2.58672978      -2.56550189      -0.08597519        1 
H       1.81814433      -2.05714644      -1.58708339        1 
H      -0.79011050       3.04438471       2.17641499        1 
H       0.54302335       3.55758971       1.09079110        1 
H      -4.97303270      -0.22709963       0.15614710        1 
H      -5.03720479       0.31946519      -1.54890637        1 
H      -1.16560370      -2.42169330       1.30042061        1 
C       2.48319553       0.00530262       0.61720942        6 
O       3.22797354       0.33165783      -0.54134440        8 
H       3.08768951      -0.58255522       1.32347572        1 
H       2.14431857       0.91000033       1.13667674        1 
C       4.24817800       1.28156217      -0.29877814        6 
H       4.74586425       1.46768576      -1.25031040        1 
H       4.98403728       0.90491866       0.42575482        1 
H       3.82975711       2.22500552       0.07735362        1 
