36
Lattice="0.0 0.0 0.0 0.0 0.0 0.0 0.0 0.0 0.0" Properties=species:S:1:pos:R:3:Z:I:1 pbc="F F F"
C      -1.34109045      -0.91648666      -0.75780770        6 
C       0.07227336      -0.26477967      -0.85528075        6 
C      -2.42074352      -0.17106136       0.01197403        6 
C       0.01258084       1.25091769      -0.96538765        6 
O      -1.94957221       0.79961496       0.81085165        8 
O      -3.57982680      -0.51261052      -0.00931639        8 
O       1.00583752       1.90116515      -0.33971694        8 
O      -0.84033766       1.81088053      -1.61236512        8 
C       0.99798367       3.33438320      -0.48092011        6 
C      -2.92302671       1.47405768       1.62703219        6 
C      -0.99048678      -2.16777466       0.09715521        6 
C      -0.04369423      -3.11315116      -0.67404445        6 
C       1.32364270      -2.39367149      -0.49200221        6 
C       0.88235676      -1.08971025       0.21865065        6 
O      -0.14222195      -1.58750564       1.10048538        8 
H      -1.76286281      -1.17656660      -1.72689983        1 
H       0.48032899      -0.53345871      -1.83528919        1 
H       0.06555187       3.74903540      -0.09561054        1 
H      -3.38981787       0.77003325       2.31737035        1 
H      -0.04112023      -4.10481558      -0.21992244        1 
H      -0.33794794      -3.22511456      -1.71995515        1 
H       1.98287523      -2.95789801       0.16981601        1 
H       1.85742998      -2.20783039      -1.42351990        1 
H       1.84673909       3.68684013       0.10116096        1 
H       1.10880659       3.61505538      -1.52916975        1 
H      -3.69009034       1.93103897       1.00083572        1 
H      -2.36749032       2.23386384       2.17222602        1 
H      -1.85111585      -2.63870979       0.56614627        1 
C       1.96567398      -0.41894830       1.03363529        6 
O       3.05368564      -0.15534471       0.16372763        8 
H       2.27107633      -1.10672363       1.83591650        1 
H       1.59315684       0.50316656       1.48891880        1 
C       4.01628727       0.70964474       0.72880819        6 
H       4.80722983       0.83931431      -0.01050646        1 
H       4.45106583       0.28785544       1.64632352        1 
H       3.57725072       1.68865242       0.96346249        1 
