36
Lattice="0.0 0.0 0.0 0.0 0.0 0.0 0.0 0.0 0.0" Properties=species:S:1:pos:R:3:Z:I:1 pbc="F F F"
C      -1.20260718      -0.95597159      -0.41472542        6 
C       0.05997559      -0.04203751      -0.57041825        6 
C      -2.50534732      -0.29771871       0.00500587        6 
C      -0.05402906       1.30979690       0.12257105        6 
O      -2.93661354       0.53139749      -0.96994352        8 
O      -3.13647282      -0.55711086       0.99732483        8 
O       1.05505672       2.04949496      -0.08829633        8 
O      -1.01734711       1.73514207       0.70948296        8 
C       1.03952974       3.37953274       0.46211280        6 
C      -4.12125161       1.28814434      -0.66687138        6 
C      -0.70157777      -2.06110879       0.54874455        6 
C       0.04505387      -3.11322680      -0.28377709        6 
C       1.26902972      -2.27502814      -0.74820771        6 
C       1.12138890      -0.98420496       0.11496784        6 
O       0.37855412      -1.42903826       1.25930805        8 
H      -1.42179132      -1.38706257      -1.39561688        1 
H       0.31661733       0.14959561      -1.61192324        1 
H       0.94310654       3.34399168       1.54854940        1 
H      -3.93516468       1.93472917       0.19205471        1 
H       0.35169751      -3.94517008       0.35238009        1 
H      -0.55113063      -3.51008784      -1.10770768        1 
H       2.21483533      -2.76879094      -0.52417959        1 
H       1.26216870      -2.05035063      -1.81532416        1 
H       1.99129682       3.82110156       0.17493077        1 
H       0.20930948       3.95321454       0.04767542        1 
H      -4.95792026       0.62278596      -0.44863916        1 
H      -4.32434583       1.88050230      -1.55670138        1 
H      -1.44873875      -2.41462026       1.25302093        1 
C       2.44469674      -0.40402323       0.56904019        6 
O       3.18268149      -0.04995845      -0.58531115        8 
H       2.97448373      -1.17316949       1.15006323        1 
H       2.29220335       0.46340210       1.21943187        1 
C       4.33399276       0.71515807      -0.29153455        6 
H       4.82821578       0.93042637      -1.23918490        1 
H       5.02961762       0.16562913       0.35849705        1 
H       4.06553116       1.66162935       0.19770723        1 
