36
Lattice="0.0 0.0 0.0 0.0 0.0 0.0 0.0 0.0 0.0" Properties=species:S:1:pos:R:3:Z:I:1 pbc="F F F"
C      -1.00114509      -1.04380438      -0.73389491        6 
C       0.26125895      -0.10955207      -0.73469823        6 
C      -2.23003880      -0.67130286       0.08966538        6 
C       0.01131198       1.35550925      -0.41823484        6 
O      -2.18419464       0.54906049       0.63789850        8 
O      -3.14462487      -1.44266378       0.25995974        8 
O      -0.71616941       1.88961202      -1.42923588        8 
O       0.42022064       2.00236112       0.51103743        8 
C      -1.11078518       3.26027726      -1.26460434        6 
C      -3.27938959       0.91219403       1.49995930        6 
C      -0.39341772      -2.31496171      -0.07669367        6 
C       0.66318815      -2.95780229      -0.99901365        6 
C       1.87758859      -2.01211765      -0.77611169        6 
C       1.25788979      -0.93579855       0.14915136        6 
O       0.38779358      -1.73100789       0.97870947        8 
H      -1.36052122      -1.23943876      -1.74547934        1 
H       0.64219130      -0.08459627      -1.75738673        1 
H      -0.23668854       3.90433035      -1.15922360        1 
H      -3.38640925       0.18046845       2.30105507        1 
H       0.88100849      -3.97613438      -0.67465664        1 
H       0.33043924      -3.00074835      -2.03847196        1 
H       2.68441200      -2.52266237      -0.24723668        1 
H       2.28841911      -1.59042982      -1.69322242        1 
H      -1.66711886       3.51402103      -2.16457966        1 
H      -1.74439020       3.36591986      -0.38183061        1 
H      -4.20828321       0.96439361       0.93015030        1 
H      -3.01494410       1.88742396       1.90204844        1 
H      -1.13810733      -2.98821584       0.33803451        1 
C       2.25435134      -0.18918832       1.00862341        6 
O       3.09811633       0.53668654       0.12691266        8 
H       2.83616345      -0.91833436       1.59133339        1 
H       1.73503135       0.48365971       1.69446866        1 
C       3.86097466       1.53027893       0.78673787        6 
H       4.46904335       2.02352078       0.02769476        1 
H       4.52384097       1.08902798       1.54435713        1 
H       3.20743381       2.26945403       1.26596902        1 
