36
Lattice="0.0 0.0 0.0 0.0 0.0 0.0 0.0 0.0 0.0" Properties=species:S:1:pos:R:3:Z:I:1 pbc="F F F"
C      -1.06455283      -1.14490297      -0.58340306        6 
C       0.14656552      -0.14538252      -0.67089734        6 
C      -2.32192783      -0.62619643       0.09331359        6 
C      -0.09696209       1.20829954      -0.03648153        6 
O      -2.73537797       0.51869271      -0.49010634        8 
O      -2.92964946      -1.18886680       0.96740501        8 
O       0.11101470       2.20016913      -0.92459721        8 
O      -0.41907247       1.40023207       1.11169260        8 
C      -0.06294451       3.53557986      -0.42283842        6 
C      -3.88356692       1.15258760       0.10335183        6 
C      -0.43705910      -2.34240250       0.16146643        6 
C       0.51575518      -3.09879164      -0.78627569        6 
C       1.71449563      -2.10877437      -0.85734120        6 
C       1.23846807      -0.98306321       0.09804054        6 
O       0.46840423      -1.69873419       1.06979662        8 
H      -1.37152079      -1.42103880      -1.59638735        1 
H       0.44581192       0.02039743      -1.70212389        1 
H       0.63876641       3.73209494       0.38952844        1 
H      -3.64982052       1.45933695       1.12393309        1 
H       0.81157421      -4.04930707      -0.34027791        1 
H       0.06592676      -3.30859496      -1.75920012        1 
H       2.62891319      -2.55928915      -0.46718835        1 
H       1.92509342      -1.74140051      -1.86162386        1 
H       0.13659277       4.19144732      -1.26740179        1 
H      -1.08153747       3.67726708      -0.05780720        1 
H      -4.73590356       0.47231249       0.11264950        1 
H      -4.09040999       2.01967289      -0.52030510        1 
H      -1.15162516      -2.94107666       0.71857124        1 
C       2.33028146      -0.20248338       0.79697892        6 
O       2.99501156       0.57395944      -0.18683588        8 
H       3.02533196      -0.90464185       1.27848576        1 
H       1.89206790       0.43552900       1.57261571        1 
C       3.98202744       1.42797024       0.35933650        6 
H       4.42009653       1.98441935      -0.46950780        1 
H       4.77163474       0.85612060       0.86628935        1 
H       3.54305174       2.13433629       1.07763564        1 
