36
Lattice="0.0 0.0 0.0 0.0 0.0 0.0 0.0 0.0 0.0" Properties=species:S:1:pos:R:3:Z:I:1 pbc="F F F"
C      -1.34111224      -0.71654534      -0.87863602        6 
C       0.10268101      -0.10101917      -0.82304447        6 
C      -2.48583840       0.12062505      -0.32073266        6 
C       0.21208669       1.35742451      -0.42180574        6 
O      -2.53186437       0.13076565       1.01526928        8 
O      -3.33501442       0.61477856      -1.02798050        8 
O       1.20689098       1.94849347      -1.11765782        8 
O      -0.45322622       1.94288828       0.39701662        8 
C       1.46715380       3.32637970      -0.79861664        6 
C      -3.54561084       0.95761402       1.60838143        6 
C      -1.11186261      -2.01786776      -0.05859315        6 
C      -0.22974504      -2.99630500      -0.86815132        6 
C       1.18213243      -2.36642118      -0.67417643        6 
C       0.83108110      -1.10664075       0.15338707        6 
O      -0.23199622      -1.57975571       0.98437780        8 
H      -1.61756842      -0.92557015      -1.91104094        1 
H       0.56585139      -0.17263733      -1.80534635        1 
H       1.75585665       3.42755269       0.24909108        1 
H      -4.53827938       0.66073278       1.26604772        1 
H      -0.28337985      -3.99925295      -0.44243019        1 
H      -0.53284242      -3.05838947      -1.91542608        1 
H       1.83251063      -3.01678503      -0.08635055        1 
H       1.69460699      -2.13021836      -1.60581527        1 
H       2.28459341       3.62460873      -1.45112727        1 
H       0.58180689       3.93600394      -0.98538145        1 
H      -3.36589180       2.00212271       1.34957610        1 
H      -3.44593902       0.80949286       2.68137548        1 
H      -2.01180157      -2.44124379       0.38029114        1 
C       1.94048651      -0.56053606       1.02639309        6 
O       3.05997707      -0.29587376       0.20174940        8 
H       2.18512767      -1.31246510       1.79040149        1 
H       1.60649283       0.34936093       1.54413443        1 
C       4.12507790       0.32058993       0.89804217        6 
H       4.92755065       0.48352401       0.17861012        1 
H       4.49559618      -0.31778645       1.71235735        1 
H       3.81886610       1.28751170       1.32144536        1 
