36
Lattice="0.0 0.0 0.0 0.0 0.0 0.0 0.0 0.0 0.0" Properties=species:S:1:pos:R:3:Z:I:1 pbc="F F F"
C      -1.20676470      -0.72745976      -0.64127533        6 
C       0.17706634      -0.01165898      -0.69003238        6 
C      -2.40580138       0.19669724      -0.53727825        6 
C       0.18420738       1.33787320       0.00817089        6 
O      -3.28845997      -0.20229083       0.39521635        8 
O      -2.57706897       1.14334510      -1.26605147        8 
O       1.25206930       2.06878828      -0.37820380        8 
O      -0.63904005       1.73434969       0.79414130        8 
C       1.36376736       3.37392457       0.21718526        6 
C      -4.45495709       0.62868026       0.54985467        6 
C      -0.98012942      -1.82808144       0.43271102        6 
C      -0.30456188      -3.02055966      -0.26563745        6 
C       1.07887102      -2.39526974      -0.60663823        6 
C       1.01323327      -1.04258440       0.16080556        6 
O       0.09923196      -1.31330226       1.23221562        8 
H      -1.36081869      -1.20773848      -1.61367169        1 
H       0.57871589       0.10264134      -1.69395738        1 
H       1.45976698       3.29293917       1.30150524        1 
H      -5.02736198       0.65969205      -0.37852745        1 
H      -0.20216624      -3.85386705       0.43146112        1 
H      -0.85485221      -3.37007604      -1.14145310        1 
H       1.90316152      -3.00028912      -0.22751079        1 
H       1.24224611      -2.24794684      -1.67446886        1 
H       2.25936657       3.81378751      -0.21616424        1 
H       0.48517339       3.97561303      -0.01962431        1 
H      -4.15684351       1.64051158       0.82656223        1 
H      -5.03572552       0.16634823       1.34494200        1 
H      -1.83663069      -2.04058263       1.06373101        1 
C       2.33808342      -0.57483608       0.72511573        6 
O       3.23203670      -0.40684273      -0.35767930        8 
H       2.70911483      -1.33505208       1.42832147        1 
H       2.21540458       0.36208190       1.28301185        1 
C       4.43801135       0.23065574       0.01323561        6 
H       5.05128233       0.30672567      -0.88473198        1 
H       4.98340308      -0.34794959       0.77235827        1 
H       4.24787053       1.23920680       0.40514010        1 
