36
Lattice="0.0 0.0 0.0 0.0 0.0 0.0 0.0 0.0 0.0" Properties=species:S:1:pos:R:3:Z:I:1 pbc="F F F"
C      -0.90307362      -0.98014905      -0.66530418        6 
C       0.35433534      -0.03480961      -0.72988278        6 
C      -2.27402582      -0.32981570      -0.59729163        6 
C       0.21399183       1.42493268      -0.32033687        6 
O      -2.83253965      -0.39982445       0.62549885        8 
O      -2.84617111       0.10854041      -1.56666544        8 
O      -1.00079595       1.74851402       0.14605414        8 
O       1.12689692       2.21546683      -0.37579455        8 
C      -1.19448038       3.11766143       0.54337595        6 
C      -4.14051886       0.18070763       0.75032638        6 
C      -0.52436792      -1.93343805       0.50889342        6 
C       0.39127308      -3.03159176      -0.04914395        6 
C       1.65342514      -2.19148830      -0.38791778        6 
C       1.30495971      -0.81422113       0.25427855        6 
O       0.38757432      -1.15553042       1.30300031        8 
H      -0.94010756      -1.53833184      -1.60291081        1 
H       0.78501610      -0.01334592      -1.73071560        1 
H      -1.00954322       3.78582356      -0.29842559        1 
H      -4.84716373      -0.31692197       0.08425795        1 
H       0.60138843      -3.77092221       0.72544988        1 
H      -0.03603800      -3.54775441      -0.91120141        1 
H       2.55448846      -2.60161742       0.06877556        1 
H       1.84282991      -2.10056060      -1.45757418        1 
H      -2.23217095       3.18103073       0.86261164        1 
H      -0.52343767       3.37257511       1.36450403        1 
H      -4.10882139       1.24355084       0.50462943        1 
H      -4.42464168       0.03612014       1.79043680        1 
H      -1.35894493      -2.25477633       1.12347054        1 
C       2.50987713      -0.09227294       0.82005631        6 
O       3.42536121       0.09015877      -0.24436459        8 
H       2.94824357      -0.71957649       1.61024617        1 
H       2.22532326       0.86604841       1.26365927        1 
C       4.39138601       1.09389130       0.01087580        6 
H       5.03761292       1.14328823      -0.86591074        1 
H       5.00372925       0.84979413       0.89092765        1 
H       3.91050754       2.06782691       0.16086345        1 
