36
Lattice="0.0 0.0 0.0 0.0 0.0 0.0 0.0 0.0 0.0" Properties=species:S:1:pos:R:3:Z:I:1 pbc="F F F"
C      -1.09418212      -0.97200261      -0.82543119        6 
C       0.17246821      -0.07766874      -0.79931933        6 
C      -2.14953699      -0.74350036       0.26946169        6 
C       0.03355175       1.43181059      -0.73839408        6 
O      -2.04259731       0.43328976       0.90591748        8 
O      -2.91535455      -1.60869844       0.62315124        8 
O      -1.17416920       1.81852640      -1.20163046        8 
O       0.94476394       2.20712975      -0.57480050        8 
C      -1.36454185       3.23134622      -1.37856359        6 
C      -2.89344189       0.60695455       2.05417845        6 
C      -0.41871364      -2.30306438      -0.37037284        6 
C       0.72952613      -2.74616851      -1.30471835        6 
C       1.90953820      -1.85440109      -0.81346518        6 
C       1.15373167      -0.89173415       0.12545015        6 
O       0.27226998      -1.81479383       0.80071679        8 
H      -1.57909389      -1.01634646      -1.80060796        1 
H       0.59028990      -0.15051219      -1.81210689        1 
H      -0.64091011       3.63201948      -2.09052659        1 
H      -2.66609295      -0.14880819       2.80731878        1 
H       0.94187150      -3.80703909      -1.16876127        1 
H       0.48344994      -2.58952064      -2.35783305        1 
H       2.63272721      -2.43405535      -0.23778658        1 
H       2.44203379      -1.33539250      -1.60967237        1 
H      -2.37822785       3.34058516      -1.75831105        1 
H      -1.25612550       3.75280118      -0.42611986        1 
H      -3.94288376       0.52689070       1.76803341        1 
H      -2.67149124       1.60391627       2.42863713        1 
H      -1.12667711      -3.07407651      -0.08539444        1 
C       1.99048958      -0.13958517       1.13833176        6 
O       3.13934007       0.35978038       0.47827708        8 
H       2.27588507      -0.83691217       1.93937810        1 
H       1.40677800       0.67402247       1.58352667        1 
C       3.72626417       1.46978783       1.13149713        6 
H       4.60516940       1.75112189       0.55072598        1 
H       4.04156690       1.21597415       2.15386300        1 
H       3.02853568       2.31481995       1.16130451        1 
