36
Lattice="0.0 0.0 0.0 0.0 0.0 0.0 0.0 0.0 0.0" Properties=species:S:1:pos:R:3:Z:I:1 pbc="F F F"
C      -0.83605318       1.04963764       0.37188604        6 
C       0.26560244      -0.06180458       0.54796577        6 
C      -2.25962379       0.64926187       0.04430426        6 
C       0.00261755      -1.42102602      -0.10363621        6 
O      -2.87970818       0.18623158       1.15154007        8 
O      -2.82087208       0.83131987      -1.00743881        8 
O      -1.30881141      -1.71355977      -0.17567945        8 
O       0.85355130      -2.18517853      -0.48765695        8 
C      -1.65132404      -2.96980118      -0.78964407        6 
C      -4.23784620      -0.24626791       0.97611005        6 
C      -0.17075139       2.00263992      -0.66352427        6 
C       0.70110868       2.98725997       0.12680675        6 
C       1.75149005       1.99714549       0.70232790        6 
C       1.46451330       0.69752826      -0.11762598        6 
O       0.82183697       1.18603538      -1.30859850        8 
H      -0.91879155       1.56162268       1.33341827        1 
H       0.45463135      -0.26593032       1.60385323        1 
H      -1.21557719      -3.79785445      -0.22916841        1 
H      -4.28387078      -1.06868586       0.25989221        1 
H       1.16016983       3.70936349      -0.55026062        1 
H       0.14763472       3.53359863       0.89369797        1 
H       2.77331148       2.33346517       0.52667163        1 
H       1.64361819       1.82881092       1.77479270        1 
H      -2.73757404      -3.01665807      -0.76451007        1 
H      -1.29058915      -2.99737021      -1.81834787        1 
H      -4.86132284       0.57413841       0.61718237        1 
H      -4.56834271      -0.57798289       1.95812054        1 
H      -0.85045962       2.40981196      -1.40636787        1 
C       2.72210276      -0.06746132      -0.47706925        6 
O       3.25914415      -0.58232036       0.73062091        8 
H       3.42941898       0.63123872      -0.94819022        1 
H       2.50145063      -0.86997625      -1.18143638        1 
C       4.27093957      -1.54811298       0.51205413        6 
H       4.61646600      -1.87857323       1.49213677        1 
H       5.12012128      -1.12180384      -0.04103853        1 
H       3.87676037      -2.40822147      -0.04356450        1 
