36
Lattice="0.0 0.0 0.0 0.0 0.0 0.0 0.0 0.0 0.0" Properties=species:S:1:pos:R:3:Z:I:1 pbc="F F F"
C      -1.21505941      -0.56897891      -0.47865399        6 
C       0.20670847       0.05549428      -0.57628683        6 
C      -2.39241367       0.34708362      -0.22030360        6 
C       0.40562891       1.37035177       0.16743780        6 
O      -3.53425417      -0.38380078      -0.27196618        8 
O      -2.37716844       1.52843951       0.00601370        8 
O       0.95015767       2.29212421      -0.65982514        8 
O       0.14244570       1.58731079       1.32083674        8 
C       1.15958358       3.59297518      -0.08312914        6 
C      -4.75613272       0.33427558      -0.01726433        6 
C      -1.00132929      -1.76381475       0.51017435        6 
C      -0.45659401      -2.94571841      -0.31095307        6 
C       0.94208564      -2.38247380      -0.70240923        6 
C       1.01380225      -1.08364701       0.15360179        6 
O       0.15060828      -1.37596104       1.26201441        8 
H      -1.45121619      -0.99846934      -1.45716963        1 
H       0.52769028       0.18335953      -1.60665400        1 
H       1.84652795       3.53245075       0.76289183        1 
H      -4.90500903       1.11262764      -0.76731579        1 
H      -0.36565627      -3.82841007       0.32446188        1 
H      -1.08320765      -3.20214061      -1.16746426        1 
H       1.74760003      -3.06311107      -0.42389737        1 
H       1.04198229      -2.17283918      -1.76797231        1 
H       1.58655044       4.19837883      -0.87990879        1 
H       0.21082822       4.01181049       0.25566725        1 
H      -4.73018080       0.79051385       0.97337838        1 
H      -5.54719158      -0.41013229      -0.07667253        1 
H      -1.83429937      -1.96869493       1.17692026        1 
C       2.39529635      -0.72538472       0.65858588        6 
O       3.19615341      -0.43027088      -0.47261308        8 
H       2.80472515      -1.57917972       1.21768698        1 
H       2.34098344       0.13150173       1.34143202        1 
C       4.49812665       0.00536937      -0.13276306        6 
H       5.02085356       0.21402768      -1.06634532        1 
H       5.04809264      -0.76723842       0.42262273        1 
H       4.46692300       0.92073151       0.47392530        1 
