36
Lattice="0.0 0.0 0.0 0.0 0.0 0.0 0.0 0.0 0.0" Properties=species:S:1:pos:R:3:Z:I:1 pbc="F F F"
C      -0.96420502       1.10933118       0.73527391        6 
C       0.23155297       0.08723337       0.73962031        6 
C      -2.08854839       0.87855260      -0.28664920        6 
C      -0.09362827      -1.37343036       0.48645446        6 
O      -2.55893855      -0.38293485      -0.28307296        8 
O      -2.51593595       1.72933162      -1.02661634        8 
O      -0.97020349      -1.78941269       1.42794470        8 
O       0.45368362      -2.13029127      -0.27640929        8 
C      -1.38552165      -3.16034197       1.34587035        6 
C      -3.58847974      -0.67598366      -1.24753344        6 
C      -0.19499968       2.36843668       0.26938279        6 
C       0.89945090       2.77478133       1.28120953        6 
C       2.04182670       1.78025814       0.92724000        6 
C       1.31960299       0.85906201      -0.08285455        6 
O       0.55070134       1.81556149      -0.83396463        8 
H      -1.41745067       1.19424727       1.72499564        1 
H       0.57768595       0.04436840       1.77630302        1 
H      -0.52925560      -3.83090690       1.43421185        1 
H      -3.21591827      -0.51293438      -2.25960031        1 
H       1.20239932       3.80998248       1.12109770        1 
H       0.55548599       2.68504317       2.31464993        1 
H       2.86627262       2.28770569       0.42293058        1 
H       2.44729958       1.23866258       1.78114633        1 
H      -2.07379401      -3.30608971       2.17575142        1 
H      -1.89084368      -3.34608262       0.39606463        1 
H      -4.46178027      -0.04493864      -1.07812827        1 
H      -3.83638601      -1.72401754      -1.09411193        1 
H      -0.83499178       3.16608039      -0.09265381        1 
C       2.22738588       0.07957770      -1.00894055        6 
O       3.08987744      -0.69889017      -0.19578405        8 
H       2.80338385       0.79310958      -1.61605894        1 
H       1.63978512      -0.55679804      -1.67699665        1 
C       3.74033671      -1.73250551      -0.91168717        6 
H       4.38330357      -2.25590294      -0.20326902        1 
H       4.35990798      -1.32815524      -1.72477981        1 
H       3.01057075      -2.43702555      -1.32844505        1 
