36
Lattice="0.0 0.0 0.0 0.0 0.0 0.0 0.0 0.0 0.0" Properties=species:S:1:pos:R:3:Z:I:1 pbc="F F F"
C      -1.27383856      -0.79585133      -0.78689556        6 
C       0.12836439      -0.08648733      -0.78444903        6 
C      -2.47965852       0.08226376      -0.48066287        6 
C       0.13082653       1.35666048      -0.30592739        6 
O      -2.83177988       0.04961728       0.81395438        8 
O      -3.10236829       0.66380786      -1.33703344        8 
O       1.32947585       1.93045336      -0.54462374        8 
O      -0.79635878       1.96119307       0.17211543        8 
C       1.45014847       3.31279654      -0.16250970        6 
C      -3.89269582       0.94074439       1.19623615        6 
C      -1.03300978      -1.95872272       0.21356710        6 
C      -0.23320526      -3.06718386      -0.49458176        6 
C       1.16396346      -2.39389248      -0.60213962        6 
C       0.92977365      -1.06292536       0.16363314        6 
O      -0.06735538      -1.41520186       1.12833737        8 
H      -1.46909273      -1.17924345      -1.78898475        1 
H       0.57804096      -0.08392335      -1.77682113        1 
H       1.29787510       3.42693646       0.91214765        1 
H      -4.80292286       0.72108666       0.63607608        1 
H      -0.19701087      -3.96185539       0.12902400        1 
H      -0.65868614      -3.34288934      -1.46133382        1 
H       1.93630417      -2.97688618      -0.09847298        1 
H       1.49426897      -2.22622879      -1.62714563        1 
H       2.46172895       3.60111214      -0.43990961        1 
H       0.71698488       3.92069793      -0.69426860        1 
H      -3.58773635       1.97149659       1.01022031        1 
H      -4.04447497       0.77117324       2.26012836        1 
H      -1.91458997      -2.27495027       0.76263871        1 
C       2.15598735      -0.53521270       0.87813927        6 
O       3.19049132      -0.39011998      -0.07586739        8 
H       2.44028185      -1.26030975       1.65465693        1 
H       1.94014239       0.41899877       1.37367239        1 
C       4.30740592       0.31655575       0.42317812        6 
H       5.04335691       0.36393770      -0.37977667        1 
H       4.75461741      -0.19234582       1.28905097        1 
H       4.03070443       1.33810953       0.71828135        1 
