36
Lattice="0.0 0.0 0.0 0.0 0.0 0.0 0.0 0.0 0.0" Properties=species:S:1:pos:R:3:Z:I:1 pbc="F F F"
C      -0.96452063       1.17622256       0.40568484        6 
C       0.22479303       0.17227273       0.70901636        6 
C      -2.23121986       0.50387033      -0.08222606        6 
C      -0.15740529      -1.27127344       0.42157960        6 
O      -3.02250057       0.19206499       0.96355131        8 
O      -2.51555164       0.27417602      -1.23177453        8 
O       0.07446036      -1.64777039      -0.84489881        8 
O      -0.68265652      -1.98554129       1.24327556        8 
C      -0.38701133      -2.95825278      -1.21736793        6 
C      -4.21584362      -0.55391051       0.66190289        6 
C      -0.30933052       2.11579109      -0.64068941        6 
C       0.59603315       3.11016208       0.10898982        6 
C       1.74808249       2.16270690       0.55464825        6 
C       1.35180764       0.82838500      -0.14664480        6 
O       0.64213266       1.27851870      -1.30917733        8 
H      -1.21878149       1.71060326       1.32073490        1 
H       0.46685194       0.19256730       1.76904556        1 
H      -1.47172034      -3.01635931      -1.11680312        1 
H      -3.95358888      -1.52851802       0.24717960        1 
H       0.95584291       3.87888549      -0.57687814        1 
H       0.09052034       3.60485301       0.94110669        1 
H       2.71626322       2.50603829       0.18701227        1 
H       1.82353361       2.05157589       1.63691909        1 
H      -0.09730108      -3.07911304      -2.25862854        1 
H       0.07736836      -3.72224366      -0.59216634        1 
H      -4.83828611      -0.01048144      -0.05025176        1 
H      -4.72969698      -0.67415193       1.61270960        1 
H      -1.00018791       2.53293251      -1.36879056        1 
C       2.51701178      -0.05135529      -0.55443396        6 
O       2.99137910      -0.69454985       0.61853513        8 
H       3.30463067       0.57147509      -1.00191745        1 
H       2.18944290      -0.78465461      -1.29667920        1 
C       4.05252958      -1.59477363       0.36258644        6 
H       4.32405775      -2.05169615       1.31427360        1 
H       4.92846801      -1.07508551      -0.05029295        1 
H       3.74532095      -2.38077488      -0.34090945        1 
