36
Lattice="0.0 0.0 0.0 0.0 0.0 0.0 0.0 0.0 0.0" Properties=species:S:1:pos:R:3:Z:I:1 pbc="F F F"
C      -1.12987945      -0.66205528      -0.38498886        6 
C       0.25510864      -0.01538668      -0.68819154        6 
C      -2.36946193       0.20548916      -0.29182368        6 
C       0.48336608       1.45167010      -0.34744009        6 
O      -3.44413664      -0.55620396      -0.62922726        8 
O      -2.47226081       1.35263051       0.05697564        8 
O       0.10720509       1.77815035       0.89293121        8 
O       1.07304260       2.20532262      -1.08928850        8 
C       0.25895687       3.15661491       1.26338732        6 
C      -4.72961579       0.08383731      -0.52966558        6 
C      -0.81725034      -1.55443538       0.87231756        6 
C      -0.26975551      -2.88940038       0.34074079        6 
C       1.07448588      -2.39847381      -0.27560877        6 
C       1.14440421      -0.92741441       0.23628496        6 
O       0.35577973      -0.96488393       1.43529060        8 
H      -1.35180811      -1.34119598      -1.20938156        1 
H       0.52857723      -0.12257298      -1.73495833        1 
H      -0.35757229       3.78618632       0.61990242        1 
H      -4.77400267       0.95494784      -1.18498216        1 
H      -0.09771554      -3.57752204       1.17024029        1 
H      -0.93363259      -3.37226392      -0.37825247        1 
H       1.92652741      -2.96616938       0.09935936        1 
H       1.09838288      -2.45123485      -1.36441986        1 
H      -0.08389501       3.21593548       2.29384150        1 
H       1.30209287       3.46736296       1.18325810        1 
H      -4.92280817       0.39832363       0.49730673        1 
H      -5.45179240      -0.66736519      -0.84219023        1 
H      -1.60467602      -1.60623433       1.62057496        1 
C       2.54078348      -0.42569453       0.53801664        6 
O       3.27577875      -0.48278938      -0.66968573        8 
H       2.99588684      -1.06358347       1.30982128        1 
H       2.50436385       0.59877181       0.92885930        1 
C       4.50202307       0.22306591      -0.61138674        6 
H       4.98151920       0.11122054      -1.58375156        1 
H       5.16456770      -0.18488465       0.16504111        1 
H       4.33257871       1.28982261      -0.41523454        1 
