36
Lattice="0.0 0.0 0.0 0.0 0.0 0.0 0.0 0.0 0.0" Properties=species:S:1:pos:R:3:Z:I:1 pbc="F F F"
C      -1.12191785      -0.94580779      -0.84405999        6 
C       0.22385628      -0.12302985      -0.78718631        6 
C      -2.32221526      -0.26810124      -0.20213258        6 
C       0.07687771       1.30954230      -0.31527924        6 
O      -2.31615230      -0.34147674       1.13224728        8 
O      -3.21362780       0.23779612      -0.84703132        8 
O       0.20896874       2.15520693      -1.35891961        8 
O      -0.15953366       1.67847916       0.80986217        8 
C       0.04745204       3.55334695      -1.06187455        6 
C      -3.37724540       0.34719314       1.81583870        6 
C      -0.67108303      -2.24550422      -0.12270094        6 
C       0.32459456      -3.01402221      -1.02350247        6 
C       1.62925581      -2.19038154      -0.80578823        6 
C       1.11159605      -1.05597114       0.11218967        6 
O       0.16195793      -1.75031284       0.92961942        8 
H      -1.40752132      -1.12313529      -1.87975162        1 
H       0.64561576      -0.06952272      -1.78800144        1 
H       0.80374451       3.87952926      -0.34599919        1 
H      -4.35079736      -0.01990838       1.48750524        1 
H       0.43773282      -4.04088739      -0.67342158        1 
H       0.00336463      -3.04843567      -2.06676926        1 
H       2.38211268      -2.77408459      -0.27265167        1 
H       2.07650760      -1.81913086      -1.72797381        1 
H       0.17235413       4.06725851      -2.01230679        1 
H      -0.94497549       3.74306010      -0.65035396        1 
H      -3.30767803       1.41900149       1.62454521        1 
H      -3.21952842       0.13984509       2.87160814        1 
H      -1.48151394      -2.83619645       0.29774908        1 
C       2.12872185      -0.36748396       0.99510977        6 
O       2.92384577       0.46116571       0.16084582        8 
H       2.74745128      -1.12120937       1.50191928        1 
H       1.60493216       0.22667734       1.75160588        1 
C       3.81180082       1.28781673       0.88987082        6 
H       4.37058933       1.87796368       0.16325839        1 
H       4.51660401       0.69193830       1.48597154        1 
H       3.26253917       1.96185564       1.56076169        1 
