36
Lattice="0.0 0.0 0.0 0.0 0.0 0.0 0.0 0.0 0.0" Properties=species:S:1:pos:R:3:Z:I:1 pbc="F F F"
C      -1.40211243      -0.61758249      -0.88898044        6 
C       0.07474722      -0.10639569      -0.83752390        6 
C      -2.51595408       0.19352573      -0.23791889        6 
C       0.31151751       1.36417971      -0.54141538        6 
O      -2.33025541       0.41113734       1.06611006        8 
O      -3.53843808       0.46908682      -0.82656728        8 
O       1.42871034       1.77308700      -1.18502660        8 
O      -0.34913658       2.10066505       0.14749906        8 
C       1.82209710       3.13720980      -0.96040551        6 
C      -3.34613283       1.17574226       1.73400233        6 
C      -1.23235170      -1.96574913      -0.12308056        6 
C      -0.36174804      -2.94555469      -0.94705675        6 
C       1.07096492      -2.40125397      -0.66022356        6 
C       0.73798424      -1.13702915       0.16491018        6 
O      -0.36727186      -1.59043346       0.95383282        8 
H      -1.72252255      -0.76961188      -1.91840306        1 
H       0.52472803      -0.26356294      -1.81669282        1 
H       1.97843244       3.32063507       0.10389733        1 
H      -4.32215410       0.69936667       1.62909461        1 
H      -0.48300692      -3.96504474      -0.57880102        1 
H      -0.62182810      -2.93827048      -2.00747946        1 
H       1.64375926      -3.09560959      -0.04280745        1 
H       1.65262134      -2.18190101      -1.55477345        1 
H       2.75097794       3.26458133      -1.51203286        1 
H       1.05782545       3.82233703      -1.33121528        1 
H      -3.38630942       2.18372397       1.31795426        1 
H      -3.04156483       1.20744053       2.77765076        1 
H      -2.15708591      -2.37714140       0.27562201        1 
C       1.82592787      -0.63148872       1.08809495        6 
O       3.00764079      -0.45395989       0.33023495        8 
H       1.97852596      -1.37432668       1.88391205        1 
H       1.51419865       0.30964614       1.56290495        1 
C       4.03649600       0.18978048       1.05494121        6 
H       4.90036594       0.25910930       0.39380375        1 
H       4.31483032      -0.38004061       1.95256869        1 
H       3.73510373       1.20157035       1.36086703        1 
