36
Lattice="0.0 0.0 0.0 0.0 0.0 0.0 0.0 0.0 0.0" Properties=species:S:1:pos:R:3:Z:I:1 pbc="F F F"
C      -1.01347657      -1.06912066      -0.51079771        6 
C       0.25107714      -0.15885935      -0.74119320        6 
C      -2.23109940      -0.46884853       0.17537537        6 
C       0.18186864       1.34519371      -0.53326281        6 
O      -3.15911481      -0.12688341      -0.75380774        8 
O      -2.38432864      -0.30090972       1.35565814        8 
O      -0.79883029       1.74192451       0.28928651        8 
O       0.96442867       2.11013927      -1.04688628        8 
C      -0.89117371       3.15278467       0.55251996        6 
C      -4.34614860       0.50684956      -0.24739510        6 
C      -0.39913101      -2.16472066       0.41014563        6 
C       0.54365125      -3.06977329      -0.40857055        6 
C       1.78960651      -2.15102653      -0.55739054        6 
C       1.31434103      -0.87651564       0.18405904        6 
O       0.50192526      -1.41090146       1.23162480        8 
H      -1.34578978      -1.47727058      -1.46497979        1 
H       0.57405861      -0.25452038      -1.77728347        1 
H      -1.07486840       3.70159450      -0.37246181        1 
H      -4.08983788       1.43572066       0.26492614        1 
H       0.77974925      -3.97623935       0.15070327        1 
H       0.10783515      -3.36749040      -1.36462016        1 
H       2.65751706      -2.56868931      -0.04491539        1 
H       2.07505336      -1.95063843      -1.58921817        1 
H      -1.72580652       3.26009473       1.24156747        1 
H       0.03125602       3.51505100       1.00831414        1 
H      -4.86721138      -0.15228736       0.44876301        1 
H      -4.96446230       0.70819597      -1.11972743        1 
H      -1.12231012      -2.67231617       1.04313999        1 
C       2.42310583      -0.02800508       0.76991572        6 
O       3.35572389       0.23363519      -0.26037026        8 
H       2.89219416      -0.58471577       1.59423056        1 
H       2.02209134       0.90522871       1.18640958        1 
C       4.23037398       1.30634714       0.03375058        6 
H       4.90987579       1.40442629      -0.81292604        1 
H       4.81708850       1.11083373       0.94289305        1 
H       3.67330184       2.24364162       0.15607689        1 
