36
Lattice="0.0 0.0 0.0 0.0 0.0 0.0 0.0 0.0 0.0" Properties=species:S:1:pos:R:3:Z:I:1 pbc="F F F"
C      -0.97976436       1.12745317       0.39495600        6 
C       0.23133737       0.15561361       0.70954894        6 
C      -2.23506239       0.42118337      -0.07321492        6 
C      -0.10858401      -1.29868107       0.42343834        6 
O      -3.10235735       0.28545500       0.95217889        8 
O      -2.44986516       0.01355880      -1.18781265        8 
O       0.07412253      -1.65076754      -0.85592732        8 
O      -0.53910581      -2.04771763       1.26989782        8 
C      -0.37116091      -2.96627449      -1.22963552        6 
C      -4.30143422      -0.46258286       0.67471367        6 
C      -0.34702757       2.06329960      -0.67281969        6 
C       0.53014430       3.09428066       0.06166251        6 
C       1.70443357       2.18420567       0.52663939        6 
C       1.34432138       0.82907695      -0.15330024        6 
O       0.62609469       1.24098997      -1.32433275        8 
H      -1.23889843       1.67757699       1.29849684        1 
H       0.47120280       0.18696489       1.76962370        1 
H      -1.45100553      -3.04447237      -1.09580990        1 
H      -4.04935478      -1.49074643       0.40991777        1 
H       0.87251880       3.85999063      -0.63646781        1 
H       0.00928738       3.58977131       0.88370231        1 
H       2.66446013       2.54576694       0.15498842        1 
H       1.78080160       2.09201528       1.61050447        1 
H      -0.11360907      -3.06774309      -2.28132963        1 
H       0.12807314      -3.72837240      -0.62960885        1 
H      -4.85900678      -0.00321393      -0.14268644        1 
H      -4.87732491      -0.43814717       1.59683393        1 
H      -1.04613976       2.45183817      -1.40938281        1 
C       2.53275569      -0.02683021      -0.54279199        6 
O       3.05197984      -0.59323784       0.65040496        8 
H       3.28748532       0.60231929      -1.03597950        1 
H       2.22011755      -0.80699451      -1.24276822        1 
C       4.13096340      -1.47828023       0.41646032        6 
H       4.43730765      -1.87553284       1.38421983        1 
H       4.98234565      -0.95949247      -0.04597489        1 
H       3.82851235      -2.30916639      -0.23555420        1 
