36
Lattice="0.0 0.0 0.0 0.0 0.0 0.0 0.0 0.0 0.0" Properties=species:S:1:pos:R:3:Z:I:1 pbc="F F F"
C      -1.00094398      -1.05575792      -0.78883741        6 
C       0.32905358      -0.21225474      -0.88965980        6 
C      -2.24422041      -0.23580312      -0.48140402        6 
C       0.18514046       1.29127428      -0.75070492        6 
O      -2.65488646      -0.34553131       0.79112215        8 
O      -2.84046026       0.39285110      -1.32491698        8 
O      -0.48752196       1.64168893       0.36620522        8 
O       0.62990331       2.09055918      -1.53554455        8 
C      -0.73977179       3.04736317       0.53735416        6 
C      -3.81134641       0.42970753       1.14766661        6 
C      -0.60684041      -2.09081575       0.29499487        6 
C       0.39220981      -3.10415936      -0.30332715        6 
C       1.69434388      -2.25262643      -0.34882004        6 
C       1.19338432      -0.90428550       0.22678883        6 
O       0.21445594      -1.31999778       1.18506863        8 
H      -1.20373872      -1.52525117      -1.75223052        1 
H       0.79496605      -0.35281562      -1.86204772        1 
H      -1.37169770       3.41462875      -0.27289961        1 
H      -4.67186555       0.13983452       0.54271780        1 
H       0.50013908      -3.96389458       0.35957027        1 
H       0.08017632      -3.47201610      -1.28316987        1 
H       2.46391304      -2.66422055       0.30629740        1 
H       2.12178944      -2.14835131      -1.34545763        1 
H      -1.24988817       3.13520113       1.49423245        1 
H       0.19606708       3.60774811       0.54736505        1 
H      -3.61205885       1.49247790       0.99998723        1 
H      -3.98957020       0.21631785       2.19925183        1 
H      -1.44179719      -2.51221747       0.84651967        1 
C       2.24410800      -0.05166247       0.90452964        6 
O       3.20775830       0.29322867      -0.07275381        8 
H       2.69933932      -0.62535732       1.72497766        1 
H       1.78076928       0.84431952       1.33787671        1 
C       4.16138665       1.22973213       0.39083109        6 
H       4.84369204       1.42736470      -0.43557611        1 
H       4.73067631       0.83366089       1.24341287        1 
H       3.68044901       2.17063835       0.69077710        1 
