36
Lattice="0.0 0.0 0.0 0.0 0.0 0.0 0.0 0.0 0.0" Properties=species:S:1:pos:R:3:Z:I:1 pbc="F F F"
C      -1.03841534      -0.76735927      -0.66197705        6 
C       0.31878609      -0.00526607      -0.71130012        6 
C      -2.06468429      -0.16767495       0.27966360        6 
C       0.25700220       1.48314105      -0.40520420        6 
O      -3.30645566      -0.57419739      -0.07212611        8 
O      -1.83834128       0.51448978       1.24649500        8 
O      -0.86676706       2.00810650      -0.94715616        8 
O       1.13276054       2.16140255       0.06781899        8 
C      -1.05763796       3.42133790      -0.76325789        6 
C      -4.37588458      -0.15396431       0.79548449        6 
C      -0.56711353      -2.11252510      -0.02688353        6 
C       0.34387175      -2.87515378      -1.01382174        6 
C       1.68212040      -2.09787540      -0.85113131        6 
C       1.25775647      -0.95961272       0.11027853        6 
O       0.33977724      -1.65260066       0.97961238        8 
H      -1.49182896      -0.90713799      -1.64153256        1 
H       0.66657826      -0.00366975      -1.74951098        1 
H      -0.22863874       3.98168096      -1.19777923        1 
H      -4.44119884       0.93493099       0.81936622        1 
H       0.44456974      -3.91817586      -0.71064475        1 
H      -0.04750933      -2.85876637      -2.03347442        1 
H       2.44193253      -2.71196088      -0.36549025        1 
H       2.09685103      -1.72412689      -1.78681065        1 
H      -1.98934178       3.65643795      -1.27347785        1 
H      -1.13493225       3.65241238       0.30027406        1 
H      -4.21433114      -0.52497712       1.80872663        1 
H      -5.28050061      -0.58210148       0.36916614        1 
H      -1.36280093      -2.69761838       0.42988657        1 
C       2.38132175      -0.35616346       0.92246795        6 
O       3.36294580       0.10130835       0.00794526        8 
H       2.79556321      -1.13546170       1.57902039        1 
H       2.00665753       0.46314978       1.54122149        1 
C       4.26791675       1.02498335       0.58556833        6 
H       4.97378326       1.31116163      -0.19484941        1 
H       4.82237038       0.57261212       1.42032059        1 
H       3.73837530       1.91651770       0.94116641        1 
