36
Lattice="0.0 0.0 0.0 0.0 0.0 0.0 0.0 0.0 0.0" Properties=species:S:1:pos:R:3:Z:I:1 pbc="F F F"
C      -0.97540432      -0.99621471      -0.82274580        6 
C       0.29986555      -0.05854806      -0.75379509        6 
C      -2.22318773      -0.38327187      -0.20712860        6 
C      -0.02901142       1.33806906      -0.26360825        6 
O      -2.29851311      -0.57561770       1.11679684        8 
O      -3.06094222       0.20874910      -0.84840855        8 
O      -0.40103346       2.09910628      -1.31235051        8 
O      -0.00017731       1.73993384       0.87409094        8 
C      -0.87973073       3.42040403      -1.00458998        6 
C      -3.41299131       0.03798571       1.78853508        6 
C      -0.43350848      -2.24498977      -0.07855937        6 
C       0.59672443      -2.96195701      -0.97919099        6 
C       1.83302242      -2.02759807      -0.82267480        6 
C       1.26593773      -0.92670124       0.11145079        6 
O       0.38086263      -1.67739122       0.95472720        8 
H      -1.22977551      -1.20593050      -1.86066680        1 
H       0.69912253       0.06340639      -1.75871279        1 
H      -0.11169250       3.99581460      -0.48602332        1 
H      -4.35618155      -0.35059606       1.40097148        1 
H       0.80154754      -3.96298138      -0.59728955        1 
H       0.25493515      -3.05760053      -2.01195278        1 
H       2.65649585      -2.54106878      -0.32306934        1 
H       2.20637039      -1.62839848      -1.76587678        1 
H      -1.11710997       3.87190701      -1.96503665        1 
H      -1.77405792       3.35943201      -0.38248568        1 
H      -3.38329241       1.11997902       1.65299304        1 
H      -3.29100271      -0.21781803       2.83829705        1 
H      -1.19839793      -2.87661133       0.36602341        1 
C       2.28150611      -0.18905481       0.95640716        6 
O       3.03388732       0.63834283       0.08029587        8 
H       2.93341006      -0.91744709       1.45937794        1 
H       1.76592737       0.40985696       1.71227089        1 
C       3.90563468       1.51536528       0.76902707        6 
H       4.43702119       2.09768364       0.01588360        1 
H       4.63560859       0.96011558       1.37431969        1 
H       3.34444216       2.19443452       1.42438213        1 
