36
Lattice="0.0 0.0 0.0 0.0 0.0 0.0 0.0 0.0 0.0" Properties=species:S:1:pos:R:3:Z:I:1 pbc="F F F"
C      -1.18966973      -0.71039778      -0.61169330        6 
C       0.27252293      -0.17435415      -0.80367857        6 
C      -2.24443206       0.26066012      -0.11574894        6 
C       0.41209212       1.33973491      -0.71107428        6 
O      -3.44724174      -0.36254238      -0.11551340        8 
O      -2.09712200       1.40218113       0.23658799        8 
O       0.70965150       1.79191859       0.51559376        8 
O       0.27680224       2.05303081      -1.67616534        8 
C       0.67984935       3.22068417       0.67495198        6 
C      -4.56621058       0.41854570       0.34395631        6 
C      -0.95746360      -1.85500194       0.42424903        6 
C      -0.27660686      -3.04557440      -0.27752757        6 
C       1.16564752      -2.49273009      -0.45649774        6 
C       1.04979987      -1.09089375       0.20309997        6 
O       0.08473696      -1.32112557       1.24655485        8 
H      -1.57747465      -1.12280827      -1.54445903        1 
H       0.59351357      -0.39546313      -1.81995176        1 
H      -0.32864960       3.58632701       0.47802025        1 
H      -4.71483514       1.28639932      -0.30050579        1 
H      -0.28929745      -3.92076761       0.37394641        1 
H      -0.76447587      -3.31354591      -1.21632451        1 
H       1.89411019      -3.09525539       0.08877585        1 
H       1.49012958      -2.43379427      -1.49515703        1 
H       0.95840318       3.40322593       1.71076419        1 
H       1.38425702       3.69928163      -0.00686009        1 
H      -4.40227213       0.75514756       1.36868818        1 
H      -5.42438754      -0.24785829       0.29184478        1 
H      -1.82641119      -2.09455213       1.03172922        1 
C       2.34168292      -0.56574543       0.79463024        6 
O       3.16700723      -0.17489192      -0.29178555        8 
H       2.82250664      -1.36271314       1.38004732        1 
H       2.13779655       0.28132201       1.45366923        1 
C       4.35843867       0.46471190       0.12359563        6 
H       4.90775051       0.73824915      -0.77743053        1 
H       4.98107521      -0.20323742       0.73551537        1 
H       4.13975056       1.37214131       0.70306669        1 
