36
Lattice="0.0 0.0 0.0 0.0 0.0 0.0 0.0 0.0 0.0" Properties=species:S:1:pos:R:3:Z:I:1 pbc="F F F"
C      -1.10647871      -0.68059920      -0.45873001        6 
C       0.28146956      -0.02663460      -0.71440330        6 
C      -2.33617506       0.20125332      -0.39952795        6 
C       0.46841547       1.44030356      -0.35161869        6 
O      -3.43573156      -0.59315168      -0.37254505        8 
O      -2.39551635       1.40319277      -0.36526306        8 
O       0.03232444       1.74425467       0.87853819        8 
O       1.06746078       2.21643691      -1.05995840        8 
C       0.12430359       3.12589665       1.25762680        6 
C      -4.70449091       0.08178546      -0.28475501        6 
C      -0.82823089      -1.60280309       0.77979029        6 
C      -0.24190702      -2.91820330       0.23951822        6 
C       1.12484728      -2.40054344      -0.30244360        6 
C       1.14881473      -0.93713195       0.23190875        6 
O       0.31521983      -1.00876659       1.39901953        8 
H      -1.31704008      -1.34066237      -1.30479827        1 
H       0.59238891      -0.11907169      -1.75199526        1 
H      -0.48911184       3.73527673       0.59200261        1 
H      -4.84909958       0.73572851      -1.14601337        1 
H      -0.10024247      -3.62657203       1.05751436        1 
H      -0.86760947      -3.38851150      -0.52094681        1 
H       1.96385847      -2.96204750       0.10992562        1 
H       1.20535253      -2.44013295      -1.38916625        1 
H      -0.25686752       3.17137526       2.27549179        1 
H       1.15862425       3.47126365       1.21672813        1 
H      -4.75894336       0.67508767       0.62935516        1 
H      -5.45241158      -0.70806314      -0.27375170        1 
H      -1.64314448      -1.68437462       1.49420577        1 
C       2.52266146      -0.41585214       0.59625795        6 
O       3.30872273      -0.44565369      -0.58033516        8 
H       2.95620245      -1.05558041       1.37883038        1 
H       2.45245773       0.60313389       0.99685072        1 
C       4.51613318       0.28449477      -0.46399635        6 
H       5.03709794       0.19418313      -1.41713647        1 
H       5.15519472      -0.11895352       0.33415019        1 
H       4.31653815       1.34512595      -0.26315116        1 
