36
Lattice="0.0 0.0 0.0 0.0 0.0 0.0 0.0 0.0 0.0" Properties=species:S:1:pos:R:3:Z:I:1 pbc="F F F"
C      -1.21033025      -0.77854329      -0.67823217        6 
C       0.16539273      -0.03442764      -0.71651118        6 
C      -2.43000903       0.12094954      -0.56415614        6 
C       0.13675047       1.34605414      -0.07885361        6 
O      -3.14786436      -0.10520721       0.54812896        8 
O      -2.75105425       0.89837757      -1.43051033        8 
O       1.28358565       2.01189299      -0.33219768        8 
O      -0.78388119       1.83303855       0.52800464        8 
C       1.35748595       3.35273655       0.18606144        6 
C      -4.28548576       0.75452549       0.74373278        6 
C      -0.97066522      -1.86281148       0.40829931        6 
C      -0.25573420      -3.04611176      -0.26405298        6 
C       1.11730724      -2.39329811      -0.58898870        6 
C       1.00929550      -1.03421522       0.16319683        6 
O       0.08067472      -1.31042599       1.22127984        8 
H      -1.35059167      -1.26041714      -1.64983660        1 
H       0.57725951       0.05891500      -1.71947616        1 
H       1.28884405       3.34703036       1.27533077        1 
H      -4.99235519       0.64949439      -0.08073586        1 
H      -0.14682047      -3.86904216       0.44428555        1 
H      -0.78234520      -3.41793262      -1.14526298        1 
H       1.95015571      -2.97435685      -0.19161329        1 
H       1.29415561      -2.25264509      -1.65553592        1 
H       2.32453311       3.73311551      -0.13562445        1 
H       0.54904779       3.96181206      -0.22046476        1 
H      -3.95587075       1.79192630       0.81188793        1 
H      -4.73494599       0.43107884       1.68006682        1 
H      -1.83114664      -2.09087479       1.02859964        1 
C       2.31694798      -0.54883024       0.75262438        6 
O       3.23532487      -0.38128838      -0.30972452        8 
H       2.67636430      -1.30412253       1.46709806        1 
H       2.17546954       0.38950001       1.30143443        1 
C       4.41989523       0.28244120       0.08268483        6 
H       5.05454261       0.35783314      -0.80043262        1 
H       4.95629244      -0.27622891       0.86294682        1 
H       4.20192665       1.29230374       0.45640922        1 
