36
Lattice="0.0 0.0 0.0 0.0 0.0 0.0 0.0 0.0 0.0" Properties=species:S:1:pos:R:3:Z:I:1 pbc="F F F"
C      -1.20318678      -0.68114816      -0.56722464        6 
C       0.17784294       0.02621818      -0.65167749        6 
C      -2.41283228       0.23141109      -0.53470887        6 
C       0.21283427       1.36012473       0.07938968        6 
O      -3.38628128      -0.24797425       0.26349304        8 
O      -2.52123688       1.22987052      -1.20206545        8 
O       1.31391865       2.06346383      -0.26776784        8 
O      -0.62275702       1.77652640       0.84030284        8 
C       1.44432054       3.35975369       0.34270049        6 
C      -4.58973154       0.54119158       0.33036493        6 
C      -0.97752991      -1.74961484       0.54179525        6 
C      -0.36491490      -2.98236295      -0.14298213        6 
C       1.00757225      -2.39194442      -0.58159495        6 
C       1.02303588      -1.02501820       0.16651047        6 
O       0.14880935      -1.24886241       1.28308667        8 
H      -1.34610014      -1.20877496      -1.51824035        1 
H       0.55211337       0.15695559      -1.66419525        1 
H       1.51813062       3.26655308       1.42780867        1 
H      -5.05627151       0.60973901      -0.65363291        1 
H      -0.23618426      -3.78859552       0.58095074        1 
H      -0.96747155      -3.35451764      -0.97382013        1 
H       1.84156497      -3.01137182      -0.25051317        1 
H       1.10235648      -2.26306833      -1.66035044        1 
H       2.35798810       3.78289402      -0.06916820        1 
H       0.58437632       3.98371023       0.09550506        1 
H      -4.36121895       1.54377229       0.69329745        1 
H      -5.23969818       0.01772213       1.02809620        1 
H      -1.81724126      -1.91320551       1.20902808        1 
C       2.38979312      -0.60222617       0.66156489        6 
O       3.22949278      -0.45995426      -0.46814347        8 
H       2.77308326      -1.37834110       1.34053061        1 
H       2.32859478       0.33574521       1.22624671        1 
C       4.47481378       0.13383689      -0.16021244        6 
H       5.03939302       0.19836921      -1.09046205        1 
H       5.04179153      -0.46985793       0.56272324        1 
H       4.33949381       1.14379050       0.24972323        1 
