36
Lattice="0.0 0.0 0.0 0.0 0.0 0.0 0.0 0.0 0.0" Properties=species:S:1:pos:R:3:Z:I:1 pbc="F F F"
C      -0.85986992      -0.91068504      -0.55303139        6 
C       0.36239289       0.06519155      -0.66658515        6 
C      -2.25396292      -0.32501848      -0.66686072        6 
C       0.19161819       1.47450096      -0.09466391        6 
O      -3.02051814      -0.59664688       0.40866080        8 
O      -2.65303977       0.26562153      -1.63982745        8 
O      -1.08743933       1.79898632       0.14917138        8 
O       1.10897672       2.21368744       0.17340422        8 
C      -1.32656921       3.10357125       0.70477425        6 
C      -4.36892943      -0.09754580       0.36133046        6 
C      -0.47728199      -1.78825730       0.67784875        6 
C       0.36076521      -2.95694343       0.14247775        6 
C       1.58486406      -2.16700769      -0.39680940        6 
C       1.36731568      -0.75157812       0.22972910        6 
O       0.52080048      -1.01287366       1.36563466        8 
H      -0.81754404      -1.54183767      -1.44653802        1 
H       0.71965230       0.16949272      -1.69104625        1 
H      -0.92981907       3.87523871       0.04411967        1 
H      -4.90502547      -0.52270872      -0.48855165        1 
H       0.64107990      -3.62238364       0.96096098        1 
H      -0.15340416      -3.54405104      -0.62158920        1 
H       2.53090905      -2.58647246      -0.05498335        1 
H       1.62503447      -2.12387445      -1.48609147        1 
H      -2.40804999       3.18777345       0.78488883        1 
H      -0.85811283       3.18906803       1.68621560        1 
H      -4.36797338       0.99010180       0.27493543        1 
H      -4.82606914      -0.40743819       1.29854170        1 
H      -1.29300448      -2.02187487       1.35385278        1 
C       2.66287437      -0.10410233       0.67301003        6 
O       3.42827514       0.13248271      -0.49660989        8 
H       3.18421275      -0.80273453       1.34439027        1 
H       2.47542913       0.82489568       1.21337930        1 
C       4.52197168       1.00342768      -0.27464109        6 
H       5.03842036       1.11811644      -1.22816886        1 
H       5.22383208       0.58846473       0.46301693        1 
H       4.17645508       1.98561727       0.07107053        1 
