36
Lattice="0.0 0.0 0.0 0.0 0.0 0.0 0.0 0.0 0.0" Properties=species:S:1:pos:R:3:Z:I:1 pbc="F F F"
C      -1.17098488      -0.46899050      -0.86985639        6 
C       0.29273247       0.06605500      -0.75509857        6 
C      -2.11669259       0.09995078       0.20294534        6 
C       0.47784834       1.54186350      -0.44198722        6 
O      -2.97406487      -0.83929132       0.65448253        8 
O      -2.19216121       1.25495057       0.54083159        8 
O      -0.34881847       2.26069259      -1.22882829        8 
O       1.36862636       2.03703893       0.20344793        8 
C      -0.29572738       3.68722399      -1.07329910        6 
C      -3.93596587      -0.40102959       1.63087329        6 
C      -0.89044643      -1.95759037      -0.54265920        6 
C       0.09451238      -2.60140588      -1.54723147        6 
C       1.46894187      -2.10515236      -1.00993066        6 
C       1.00426972      -1.08061731       0.04711415        6 
O      -0.09680535      -1.79134814       0.65166004        8 
H      -1.61362833      -0.27837446      -1.84857801        1 
H       0.70131313       0.04215712      -1.77183867        1 
H       0.70583575       4.06288661      -1.28877112        1 
H      -4.57268035       0.38213692       1.21672917        1 
H       0.01627235      -3.68864280      -1.51668293        1 
H      -0.10253695      -2.28176898      -2.57352215        1 
H       2.01972986      -2.90926145      -0.51884611        1 
H       2.11373338      -1.66425303      -1.76931556        1 
H      -1.01657510       4.08240841      -1.78586550        1 
H      -0.57939170       3.96170674      -0.05617983        1 
H      -3.42810511      -0.02068631       2.51817524        1 
H      -4.52145331      -1.28484965       1.87464116        1 
H      -1.77214097      -2.54400775      -0.31174457        1 
C       2.02701799      -0.71530754       1.10058151        6 
O       3.21732349      -0.34178097       0.42856209        8 
H       2.20085284      -1.59574257       1.73678618        1 
H       1.65776778       0.10192779       1.72705380        1 
C       4.09980045       0.41091294       1.24128899        6 
H       4.98827989       0.61484084       0.64275562        1 
H       4.39531524      -0.15176040       2.13833846        1 
H       3.63850511       1.35906254       1.54105428        1 
