36
Lattice="0.0 0.0 0.0 0.0 0.0 0.0 0.0 0.0 0.0" Properties=species:S:1:pos:R:3:Z:I:1 pbc="F F F"
C      -1.20743659      -0.62638778      -0.49812172        6 
C       0.17287349       0.06805945      -0.62171150        6 
C      -2.42907476       0.26729733      -0.52325952        6 
C       0.24530753       1.38910462       0.13414420        6 
O      -3.46137139      -0.29719019       0.13913133        8 
O      -2.50414039       1.31583253      -1.11154458        8 
O       1.38163322       2.05339681      -0.18050976        8 
O      -0.59533112       1.83793758       0.86912781        8 
C       1.54263005       3.34142653       0.43975004        6 
C      -4.69300937       0.44990762       0.13478062        6 
C      -0.97890518      -1.66470059       0.64222322        6 
C      -0.42879229      -2.93454916      -0.02599809        6 
C       0.92927426      -2.38359481      -0.55609304        6 
C       1.02370918      -1.00415913       0.16621113        6 
O       0.19097233      -1.18058955       1.32429985        8 
H      -1.34671315      -1.19672792      -1.42604813        1 
H       0.51832878       0.20898132      -1.64311139        1 
H       1.58413638       3.24167346       1.52595334        1 
H      -5.06721478       0.56190046      -0.88420660        1 
H      -0.27577931      -3.71612565       0.71989720        1 
H      -1.07959917      -3.32413631      -0.81132763        1 
H       1.76818409      -3.01791301      -0.26904661        1 
H       0.95951490      -2.27340057      -1.64084491        1 
H       2.48181020       3.73280146       0.05449628        1 
H       0.71288959       3.99734108       0.17287376        1 
H      -4.53628472       1.43652828       0.57200636        1 
H      -5.38698468      -0.13306974       0.73638648        1 
H      -1.79899801      -1.78078237       1.34322615        1 
C       2.42568313      -0.62968947       0.59689450        6 
O       3.21796533      -0.51520707      -0.57033196        8 
H       2.81174767      -1.42149379       1.25592673        1 
H       2.42535936       0.30856030       1.16242046        1 
C       4.50168581       0.01841746      -0.31321412        6 
H       5.02491761       0.07312817      -1.26797217        1 
H       5.07387755      -0.62131189       0.37379994        1 
H       4.43033409       1.02619298       0.11752590        1 
