36
Lattice="0.0 0.0 0.0 0.0 0.0 0.0 0.0 0.0 0.0" Properties=species:S:1:pos:R:3:Z:I:1 pbc="F F F"
C      -0.87334507       1.16039874       0.50505196        6 
C       0.27134391       0.06961848       0.60491212        6 
C      -2.11003312       0.71356238      -0.25049503        6 
C      -0.10618714      -1.26457586      -0.01123955        6 
O      -3.03992161       0.23271360       0.60744134        8 
O      -2.26692840       0.75593535      -1.44340984        8 
O      -0.73895185      -2.02631280       0.91167907        8 
O       0.08918229      -1.63045163      -1.14215934        8 
C      -1.20678092      -3.30753248       0.45414006        6 
C      -4.23860111      -0.28990833       0.00492753        6 
C      -0.11949412       2.29930542      -0.23211096        6 
C       0.82880153       2.99597675       0.76391417        6 
C       1.93909268       1.91604909       0.91123543        6 
C       1.44877452       0.82582067      -0.08345489        6 
O       0.78327074       1.59668876      -1.09207627        8 
H      -1.18579796       1.45466446       1.50647146        1 
H       0.49105792      -0.12806510       1.65217569        1 
H      -0.36955999      -3.92334928       0.12171240        1 
H      -3.99414993      -1.07158271      -0.71613986        1 
H       1.22246869       3.91442113       0.32596116        1 
H       0.34021905       3.25187407       1.70642918        1 
H       2.91091633       2.29603334       0.59210362        1 
H       2.04723532       1.53254924       1.92605777        1 
H      -1.69831041      -3.76042888       1.31236476        1 
H      -1.90869059      -3.18551899      -0.37252854        1 
H      -4.78829254       0.50360420      -0.50412606        1 
H      -4.82458011      -0.69397452       0.82742135        1 
H      -0.75776081       2.94700238      -0.82785144        1 
C       2.53638058      -0.02726192      -0.70298519        6 
O       3.00360861      -0.90400660       0.31350446        8 
H       3.34882154       0.62010646      -1.06216790        1 
H       2.13081984      -0.58985329      -1.54764626        1 
C       3.93174672      -1.85804009      -0.16797438        6 
H       4.20742636      -2.49287566       0.67460481        1 
H       4.83633580      -1.37411061      -0.56217381        1 
H       3.48764508      -2.47625791      -0.95909790        1 
