36
Lattice="0.0 0.0 0.0 0.0 0.0 0.0 0.0 0.0 0.0" Properties=species:S:1:pos:R:3:Z:I:1 pbc="F F F"
C      -1.05579133      -0.97476448      -0.40477628        6 
C       0.24303806      -0.13309252      -0.72092679        6 
C      -2.26685151      -0.18015077       0.03674000        6 
C       0.05691025       1.35972077      -0.48797584        6 
O      -3.30225119      -0.39544575      -0.80639654        8 
O      -2.34090131       0.53355154       1.00601126        8 
O       0.29125642       1.74781525       0.76972828        8 
O      -0.27790372       2.11335027      -1.37327390        8 
C      -0.02363800       3.11554501       1.08274353        6 
C      -4.51926207       0.31318595      -0.50374973        6 
C      -0.52726319      -1.94022036       0.70418074        6 
C       0.25587320      -3.07106004       0.01255296        6 
C       1.51354455      -2.28916660      -0.46263032        6 
C       1.27740156      -0.88678295       0.17458180        6 
O       0.50694970      -1.19376337       1.34661272        8 
H      -1.34904620      -1.53603443      -1.28998690        1 
H       0.49269680      -0.22201363      -1.77573909        1 
H      -1.08935141       3.29146036       0.93119941        1 
H      -4.34497906       1.38972740      -0.52775521        1 
H       0.51780314      -3.84068376       0.74053783        1 
H      -0.30150489      -3.54159321      -0.79950050        1 
H       2.43207426      -2.72740388      -0.06978584        1 
H       1.61016057      -2.23508247      -1.54734453        1 
H       0.23468116       3.23633314       2.13225880        1 
H       0.55454165       3.79768921       0.45759570        1 
H      -4.89115288       0.02972073       0.48208884        1 
H      -5.22395495       0.02151537      -1.27920258        1 
H      -1.27037787      -2.24344620       1.43866909        1 
C       2.54214943      -0.14351860       0.55566742        6 
O       3.13152719       0.31696243      -0.65030111        8 
H       3.22138193      -0.82739143       1.08476614        1 
H       2.30248257       0.69132915       1.21961337        1 
C       4.29993657       1.08597583      -0.43875185        6 
H       4.66060128       1.39890153      -1.41873156        1 
H       5.08210889       0.49794211       0.06150439        1 
H       4.08718677       1.97711353       0.16783092        1 
