36
Lattice="0.0 0.0 0.0 0.0 0.0 0.0 0.0 0.0 0.0" Properties=species:S:1:pos:R:3:Z:I:1 pbc="F F F"
C      -1.37669152      -0.90467089      -0.76880764        6 
C       0.03729868      -0.25372673      -0.85991049        6 
C      -2.39757711      -0.27330838       0.18802372        6 
C       0.03337931       1.25485678      -1.04559903        6 
O      -2.12631635       0.99204417       0.53499752        8 
O      -3.31107421      -0.90354302       0.66592500        8 
O       1.02611383       1.89620406      -0.40523721        8 
O      -0.77578784       1.81608366      -1.74293825        8 
C       1.08638812       3.31916943      -0.61492048        6 
C      -3.00747292       1.58375780       1.50739416        6 
C      -0.97312457      -2.22795694      -0.06469189        6 
C       0.04440213      -3.04583384      -0.88976596        6 
C       1.38146831      -2.32486817      -0.55221267        6 
C       0.85217770      -1.08753926       0.20773211        6 
O      -0.18027306      -1.68742488       1.01496454        8 
H      -1.84576945      -1.03915284      -1.74394363        1 
H       0.43066909      -0.55887608      -1.83696911        1 
H       0.15396529       3.79012415      -0.30095556        1 
H      -2.94266581       1.04253819       2.45256799        1 
H       0.05379382      -4.08665008      -0.56445508        1 
H      -0.19238453      -3.03326083      -1.95627537        1 
H       1.99612786      -2.92534729       0.12078436        1 
H       1.98354959      -2.06395356      -1.42213384        1 
H       1.91869426       3.66614515      -0.00629450        1 
H       1.26384576       3.54248401      -1.66791094        1 
H      -4.03724834       1.56416104       1.14935047        1 
H      -2.66099849       2.60816546       1.62401827        1 
H      -1.81488531      -2.78025415       0.33963102        1 
C       1.85872834      -0.40506782       1.10684031        6 
O       3.01329487      -0.12570705       0.33375348        8 
H       2.10345139      -1.09156056       1.93051026        1 
H       1.44045331       0.51254160       1.53244783        1 
C       3.91265417       0.74878112       0.98167941        6 
H       4.76167774       0.89291128       0.31272262        1 
H       4.27424023       0.32856490       1.93124560        1 
H       3.44225566       1.72083588       1.18266533        1 
