36
Lattice="0.0 0.0 0.0 0.0 0.0 0.0 0.0 0.0 0.0" Properties=species:S:1:pos:R:3:Z:I:1 pbc="F F F"
C      -1.14365189      -0.96706012      -0.78565787        6 
C       0.25711172      -0.26125761      -0.89346920        6 
C      -2.40848009      -0.26907644      -0.30362190        6 
C       0.39326792       1.25147740      -0.93149995        6 
O      -2.29962389       0.31179971       0.89523161        8 
O      -3.46592000      -0.40004572      -0.88189065        8 
O      -0.35768010       1.90453466      -0.03048930        8 
O       1.16108758       1.81282114      -1.67756325        8 
C      -0.22130668       3.33624973      -0.01200730        6 
C      -3.50961362       0.85480808       1.44807618        6 
C      -0.79146533      -2.08004754       0.25436601        6 
C       0.17921452      -3.10780499      -0.37152619        6 
C       1.53137220      -2.34116126      -0.28532449        6 
C       1.05863592      -0.97772205       0.27089800        6 
O       0.03051336      -1.37211415       1.18608414        8 
H      -1.41764352      -1.39347305      -1.74913443        1 
H       0.70231956      -0.56019241      -1.84051180        1 
H      -0.49676856       3.75939200      -0.97909107        1 
H      -4.24360536       0.06440462       1.61558675        1 
H       0.19853663      -4.02272165       0.22189688        1 
H      -0.10350123      -3.37432890      -1.39177981        1 
H       2.20811086      -2.80847025       0.43215506        1 
H       2.05456497      -2.24969999      -1.23614057        1 
H      -0.90031518       3.67878044       0.76588804        1 
H       0.80629039       3.61998654       0.22145557        1 
H      -3.93809497       1.60075589       0.77666411        1 
H      -3.21472257       1.30945948       2.39122396        1 
H      -1.65232009      -2.50082656       0.76975714        1 
C       2.10407778      -0.16176937       1.00045408        6 
O       3.18633926       0.04107019       0.11260321        8 
H       2.42388261      -0.71046397       1.89784696        1 
H       1.67443852       0.79473757       1.32748797        1 
C       4.08259143       1.04757737       0.54102559        6 
H       4.86700459       1.11883490      -0.21209055        1 
H       4.53456105       0.79878981       1.51155912        1 
H       3.57574616       2.01876689       0.62108066        1 
