36
Lattice="0.0 0.0 0.0 0.0 0.0 0.0 0.0 0.0 0.0" Properties=species:S:1:pos:R:3:Z:I:1 pbc="F F F"
C      -1.21728701      -0.70852636      -0.79060690        6 
C       0.27234076      -0.21590343      -0.87001629        6 
C      -2.18948314       0.25662049      -0.11169557        6 
C       0.43845523       1.29725779      -0.90132022        6 
O      -3.19417709      -0.40966728       0.49573484        8 
O      -2.14827797       1.45931782      -0.17008715        8 
O       0.74069652       1.84582382       0.28779586        8 
O       0.25023622       1.93753630      -1.90557214        8 
C       0.71733906       3.28377173       0.33037350        6 
C      -4.21146950       0.40499923       1.10880040        6 
C      -1.02360872      -1.99324310       0.05302580        6 
C      -0.18006581      -3.03661917      -0.71319774        6 
C       1.25770569      -2.47616105      -0.51726318        6 
C       0.95822807      -1.13758841       0.19903386        6 
O      -0.12591964      -1.51460065       1.07108729        8 
H      -1.62379171      -0.90293311      -1.78621334        1 
H       0.64741840      -0.50297161      -1.85268734        1 
H      -0.28128018       3.64018398       0.07529174        1 
H      -4.69584289       1.03588258       0.36213200        1 
H      -0.29324186      -4.02330967      -0.26229581        1 
H      -0.47400246      -3.11285173      -1.76258956        1 
H       1.84626170      -3.11611797       0.14300718        1 
H       1.81190020      -2.34212244      -1.44608852        1 
H       0.97153310       3.54766304       1.35511145        1 
H       1.44508329       3.70055355      -0.36736967        1 
H      -3.77465418       1.03512844       1.88440584        1 
H      -4.92194391      -0.29701963       1.53960349        1 
H      -1.93131876      -2.36678314       0.51407429        1 
C       2.10389700      -0.57225929       1.00895151        6 
O       3.09532659      -0.15151973       0.08532599        8 
H       2.49849132      -1.35445905       1.67368111        1 
H       1.75543699       0.26617961       1.61697302        1 
C       4.13155274       0.59759409       0.68865875        6 
H       4.83115428       0.87357375      -0.10058403        1 
H       4.66364606       0.00974801       1.44993991        1 
H       3.73728647       1.50929176       1.15746199        1 
