36
Lattice="0.0 0.0 0.0 0.0 0.0 0.0 0.0 0.0 0.0" Properties=species:S:1:pos:R:3:Z:I:1 pbc="F F F"
C      -1.16876862      -1.02335567      -0.47073476        6 
C       0.08034165      -0.09565827      -0.59180935        6 
C      -2.48006340      -0.38623895      -0.05262620        6 
C      -0.04653946       1.21328096       0.16270217        6 
O      -2.71599076       0.72676284      -0.77893121        8 
O      -3.27971940      -0.87475131       0.70484290        8 
O       0.73687673       2.16281380      -0.39367374        8 
O      -0.72538974       1.40623280       1.14062833        8 
C       0.72986175       3.44201823       0.26421213        6 
C      -3.93173936       1.43336808      -0.47378458        6 
C      -0.65854453      -2.16029986       0.45037660        6 
C       0.14579996      -3.14953705      -0.41069596        6 
C       1.38459754      -2.27322174      -0.76352786        6 
C       1.14330310      -1.01634522       0.11995965        6 
O       0.38082673      -1.52885049       1.21808725        8 
H      -1.38988913      -1.42526203      -1.46541851        1 
H       0.36253011       0.11564453      -1.62026229        1 
H       1.09479697       3.34751182       1.28854446        1 
H      -3.90782453       1.78381116       0.55911783        1 
H       0.43319385      -4.01650905       0.18592157        1 
H      -0.40377225      -3.50121330      -1.28597035        1 
H       2.31916690      -2.75573312      -0.47487720        1 
H       1.45703761      -2.02129402      -1.82185393        1 
H       1.39275594       4.07385505      -0.32288446        1 
H      -0.27974326       3.85532703       0.28327781        1 
H      -4.79863420       0.78715713      -0.61917921        1 
H      -3.95973221       2.27412137      -1.16357647        1 
H      -1.41264710      -2.57494855       1.11266200        1 
C       2.39866980      -0.34357442       0.63286039        6 
O       3.15185631       0.07240530      -0.49081354        8 
H       2.96412402      -1.06153285       1.24417236        1 
H       2.14507577       0.51027658       1.27477114        1 
C       4.20761097       0.95166275      -0.15750294        6 
H       4.71079121       1.21707123      -1.08735760        1 
H       4.93165404       0.47672549       0.51940949        1 
H       3.82434628       1.86512625       0.31778893        1 
