36
Lattice="0.0 0.0 0.0 0.0 0.0 0.0 0.0 0.0 0.0" Properties=species:S:1:pos:R:3:Z:I:1 pbc="F F F"
C      -1.12835056      -1.05528582      -0.61246950        6 
C       0.16427152      -0.15517374      -0.74278152        6 
C      -2.45227018      -0.34104277      -0.41960287        6 
C      -0.11456072       1.32925006      -0.51072867        6 
O      -2.59494145       0.12086302       0.83901296        8 
O      -3.28586487      -0.21697697      -1.28105019        8 
O       0.82895556       1.97367571       0.19310391        8 
O      -1.07630245       1.89196742      -0.97566890        8 
C       0.62510920       3.38853182       0.36973428        6 
C      -3.76708076       0.91947921       1.08113432        6 
C      -0.72106260      -2.01103074       0.55244669        6 
C       0.13626773      -3.13789257      -0.03827420        6 
C       1.39788258      -2.33115706      -0.44788682        6 
C       1.12338170      -0.93839012       0.21018280        6 
O       0.24341745      -1.25619347       1.30068680        8 
H      -1.26026778      -1.61963964      -1.53521631        1 
H       0.53373808      -0.19442962      -1.77019121        1 
H      -0.31767206       3.57528166       0.88511809        1 
H      -4.67283220       0.34749955       0.87417679        1 
H       0.36719405      -3.87243346       0.73517568        1 
H      -0.34543909      -3.65367132      -0.87121475        1 
H       2.31123759      -2.76781773      -0.04279799        1 
H       1.52693711      -2.24983481      -1.52774309        1 
H       1.46584301       3.72653228       0.97172438        1 
H       0.61477885       3.89484971      -0.59635069        1 
H      -3.74548752       1.80623302       0.44579424        1 
H      -3.71840671       1.19475642       2.13255974        1 
H      -1.53689413      -2.30768007       1.20629283        1 
C       2.38078989      -0.27993882       0.74113032        6 
O       3.16396278       0.10011290      -0.37813670        8 
H       2.92039775      -1.01189710       1.35966086        1 
H       2.13606087       0.58443998       1.36036682        1 
C       4.30338324       0.85567235      -0.01881762        6 
H       4.82909072       1.10575614      -0.94072421        1 
H       4.97718276       0.28273541       0.63402808        1 
H       4.01704601       1.78280428       0.49684179        1 
