36
Lattice="0.0 0.0 0.0 0.0 0.0 0.0 0.0 0.0 0.0" Properties=species:S:1:pos:R:3:Z:I:1 pbc="F F F"
C      -0.98886672      -1.05511348      -0.68646329        6 
C       0.26816891      -0.10743671      -0.69577727        6 
C      -2.30769733      -0.63170946      -0.06450995        6 
C       0.03253375       1.32762129      -0.25119173        6 
O      -2.23938467       0.47053736       0.68908632        8 
O      -3.31722459      -1.28183117      -0.21031780        8 
O      -0.54124189       2.00660316      -1.27421020        8 
O       0.29153229       1.83315785       0.80961925        8 
C      -0.91766103       3.36401039      -0.99175467        6 
C      -3.44833395       0.87672617       1.35621174        6 
C      -0.42514671      -2.27537326       0.11188986        6 
C       0.56584449      -3.05600596      -0.77054232        6 
C       1.79118150      -2.09995401      -0.75365332        6 
C       1.27870649      -0.94842180       0.15344555        6 
O       0.42100909      -1.64398382       1.07839224        8 
H      -1.24669719      -1.35857900      -1.70132668        1 
H       0.62548993      -0.02850568      -1.72185693        1 
H      -0.04566189       3.95384767      -0.70530375        1 
H      -3.80130987       0.08285668       2.01540014        1 
H       0.80166767      -4.01535437      -0.30746846        1 
H       0.17353406      -3.25066819      -1.77034182        1 
H       2.65913110      -2.57345109      -0.29168062        1 
H       2.08845427      -1.74673569      -1.74093440        1 
H      -1.35156185       3.74458290      -1.91392375        1 
H      -1.65001359       3.39132568      -0.18259690        1 
H      -4.22414897       1.11123365       0.62568531        1 
H      -3.17408946       1.75903005       1.92984784        1 
H      -1.18722105      -2.86883238       0.61106605        1 
C       2.36211300      -0.20663491       0.90721979        6 
O       3.09598885       0.53940184      -0.05367128        8 
H       3.01242070      -0.93559877       1.41163271        1 
H       1.91601518       0.45225724       1.65441276        1 
C       3.98580738       1.46843456       0.53741970        6 
H       4.49476306       1.98805279      -0.27499789        1 
H       4.73452080       0.96310946       1.16355848        1 
H       3.44055188       2.19673857       1.15152706        1 
