36
Lattice="0.0 0.0 0.0 0.0 0.0 0.0 0.0 0.0 0.0" Properties=species:S:1:pos:R:3:Z:I:1 pbc="F F F"
C      -1.06785948      -1.03885898      -0.28803208        6 
C       0.10049728      -0.00747774      -0.53762766        6 
C      -2.45386082      -0.50493674       0.01486105        6 
C      -0.22275281       1.38332645       0.02176217        6 
O      -3.01284284      -0.00683599      -1.10203481        8 
O      -3.04518204      -0.65077020       1.05760794        8 
O       0.72619359       1.90744545       0.81170463        8 
O      -1.23497571       1.98272775      -0.25273373        8 
C       0.45312518       3.22099595       1.33671707        6 
C      -4.29783943       0.61796436      -0.94823769        6 
C      -0.44824425      -1.98203571       0.77875845        6 
C       0.33796443      -3.05737577       0.01580383        6 
C       1.42942329      -2.16307720      -0.63409583        6 
C       1.25580232      -0.81227102       0.13975387        6 
O       0.61461477      -1.20896134       1.36531158        8 
H      -1.20535650      -1.59232588      -1.22045872        1 
H       0.26691331       0.13766496      -1.60564042        1 
H      -0.45102973       3.20341041       1.94612295        1 
H      -4.20018507       1.50846876      -0.32532241        1 
H       0.77212669      -3.77280692       0.71610367        1 
H      -0.26952917      -3.60365903      -0.70867183        1 
H       2.43294172      -2.55864250      -0.47829851        1 
H       1.29376492      -2.03044592      -1.70854994        1 
H       1.32036635       3.47332843       1.94303299        1 
H       0.32756240       3.93719584       0.52381663        1 
H      -5.01167714      -0.07239219      -0.49666949        1 
H      -4.60950810       0.89231591      -1.95366335        1 
H      -1.13673115      -2.30883237       1.55281316        1 
C       2.58255899      -0.13448007       0.43006389        6 
O       3.04278460       0.42165416      -0.79215095        8 
H       3.28913717      -0.89324216       0.79722418        1 
H       2.46818223       0.63523496       1.19378094        1 
C       4.26687792       1.11552830      -0.65557288        6 
H       4.53683098       1.49133307      -1.64287850        1 
H       5.06621396       0.45371588      -0.29338970        1 
H       4.17079930       1.96275283       0.03774751        1 
