36
Lattice="0.0 0.0 0.0 0.0 0.0 0.0 0.0 0.0 0.0" Properties=species:S:1:pos:R:3:Z:I:1 pbc="F F F"
C      -1.09734071      -0.88101043      -0.43950946        6 
C       0.22144171      -0.06641217      -0.72377616        6 
C      -2.35865780      -0.16134884       0.00422771        6 
C       0.27459680       1.43012673      -0.45777668        6 
O      -3.35547990      -0.41491304      -0.88657867        8 
O      -2.52010128       0.51533360       0.98507159        8 
O      -0.11431887       1.76725151       0.77524886        8 
O       0.72823955       2.21916020      -1.25624787        8 
C      -0.07305342       3.16419683       1.10593849        6 
C      -4.63095267       0.17941490      -0.58511223        6 
C      -0.60366395      -1.87984934       0.66286044        6 
C       0.17443525      -3.01579309      -0.02545163        6 
C       1.46415757      -2.25767741      -0.45109497        6 
C       1.23066489      -0.85981465       0.18753686        6 
O       0.42931077      -1.15778917       1.33608227        8 
H      -1.36429796      -1.42619856      -1.34303938        1 
H       0.49873749      -0.16597418      -1.77069920        1 
H      -0.67704350       3.74008825       0.40325937        1 
H      -4.54532430       1.26653397      -0.54649891        1 
H       0.39660374      -3.80533236       0.69417962        1 
H      -0.36967148      -3.45717125      -0.86234340        1 
H       2.35986759      -2.71360463      -0.02660718        1 
H       1.60466901      -2.19648229      -1.52992371        1 
H      -0.48466207       3.23112728       2.11011299        1 
H       0.95374852       3.53467056       1.08090322        1 
H      -5.00553311      -0.18301317       0.37374243        1 
H      -5.29123408      -0.12440778      -1.39446186        1 
H      -1.36534163      -2.17905381       1.37948924        1 
C       2.49413857      -0.13451859       0.60054785        6 
O       3.27282944       0.04647808      -0.56693440        8 
H       3.03020730      -0.74260110       1.34394341        1 
H       2.24920226       0.82712528       1.06824940        1 
C       4.36702857       0.92358363      -0.38009603        6 
H       4.89732420       0.98004154      -1.33055872        1 
H       5.05358000       0.55190967       0.39375674        1 
H       4.02449460       1.92896089      -0.10150416        1 
