36
Lattice="0.0 0.0 0.0 0.0 0.0 0.0 0.0 0.0 0.0" Properties=species:S:1:pos:R:3:Z:I:1 pbc="F F F"
C      -1.29558193      -0.78994619      -0.56211908        6 
C       0.09270118      -0.07857072      -0.69317446        6 
C      -2.34879147      -0.06911157       0.26929131        6 
C       0.07143668       1.41430382      -0.40242467        6 
O      -3.42232452       0.22606911      -0.49886026        8 
O      -2.29001085       0.15403563       1.45019846        8 
O       1.30823927       1.94620602      -0.45031019        8 
O      -0.92045718       2.07821693      -0.22757761        8 
C       1.38760328       3.37050666      -0.25592194        6 
C      -4.47550034       0.95250420       0.15854825        6 
C      -0.86837076      -2.08759575       0.18106719        6 
C      -0.06131034      -2.99587578      -0.77173768        6 
C       1.31822701      -2.27564338      -0.77561447        6 
C       1.02541653      -1.05192914       0.13161408        6 
O       0.12346701      -1.60660144       1.09524110        8 
H      -1.72254692      -0.99750764      -1.54175599        1 
H       0.41316510      -0.12024469      -1.73815225        1 
H       0.99938645       3.64284582       0.72662497        1 
H      -4.09308237       1.90066339       0.53926142        1 
H       0.01497795      -4.00526560      -0.36517910        1 
H      -0.51655465      -3.06429561      -1.76195328        1 
H       2.08982298      -2.88960536      -0.30923940        1 
H       1.67082915      -1.99038671      -1.76632922        1 
H       2.44519055       3.61300153      -0.33342974        1 
H       0.81634680       3.89287160      -1.02464488        1 
H      -4.88696993       0.37055371       0.98508209        1 
H      -5.23241770       1.12111671      -0.60468695        1 
H      -1.66802485      -2.57087743       0.73765092        1 
C       2.23626281      -0.49553841       0.85018527        6 
O       3.25041437      -0.25655752      -0.10850976        8 
H       2.56661390      -1.24264735       1.58654743        1 
H       1.98081598       0.42342871       1.38930139        1 
C       4.33903889       0.47453043       0.41513600        6 
H       5.05462897       0.61287958      -0.39581520        1 
H       4.83065664      -0.06428674       1.23800832        1 
H       4.01571799       1.45802404       0.78303014        1 
