36
Lattice="0.0 0.0 0.0 0.0 0.0 0.0 0.0 0.0 0.0" Properties=species:S:1:pos:R:3:Z:I:1 pbc="F F F"
C      -1.27978129      -0.90475216      -0.59698952        6 
C       0.06675250      -0.10815018      -0.69746393        6 
C      -2.39688186      -0.26356637       0.21746637        6 
C       0.04254764       1.33411060      -0.22662564        6 
O      -3.22863662       0.42145424      -0.60209392        8 
O      -2.54493077      -0.34177738       1.40733720        8 
O       1.05922312       2.01809499      -0.79568851        8 
O      -0.74451449       1.84117456       0.53268255        8 
C       1.18467678       3.39765307      -0.40921961        6 
C      -4.26076414       1.17747138       0.05684239        6 
C      -0.78872194      -2.19102949       0.11994513        6 
C       0.08221379      -3.03324657      -0.83730092        6 
C       1.41812731      -2.23456466      -0.81539743        6 
C       1.04289141      -1.05370208       0.11259675        6 
O       0.16700766      -1.67248980       1.05637062        8 
H      -1.66975988      -1.10568898      -1.59479924        1 
H       0.39911201      -0.07300416      -1.73445946        1 
H       1.32784355       3.48208782       0.66945951        1 
H      -3.81073004       1.90768096       0.73066672        1 
H       0.21397455      -4.04245859      -0.44486219        1 
H      -0.35570769      -3.11367402      -1.83452517        1 
H       2.22185867      -2.81182815      -0.35586105        1 
H       1.75892276      -1.90464249      -1.79621767        1 
H       2.05729387       3.76840908      -0.94240821        1 
H       0.29297269       3.95804052      -0.69483629        1 
H      -4.91766486       0.51631364       0.62453597        1 
H      -4.81243330       1.67311053      -0.73937944        1 
H      -1.56563031      -2.72584430       0.65963886        1 
C       2.19968241      -0.40941424       0.84735227        6 
O       3.18818265      -0.06055636      -0.10308064        8 
H       2.59362741      -1.13169480       1.57657931        1 
H       1.85602274       0.47306154       1.40477071        1 
C       4.20469608       0.76149690       0.43230508        6 
H       4.90995177       0.96667524      -0.37322841        1 
H       4.73546595       0.26435891       1.25661393        1 
H       3.79357700       1.71162901       0.80080524        1 
