36
Lattice="0.0 0.0 0.0 0.0 0.0 0.0 0.0 0.0 0.0" Properties=species:S:1:pos:R:3:Z:I:1 pbc="F F F"
C      -1.32317728      -0.77148082      -0.81056021        6 
C       0.09878977      -0.10863356      -0.80767894        6 
C      -2.51073631       0.06520292      -0.35185000        6 
C       0.12379080       1.38432008      -0.51153523        6 
O      -2.50679667       0.28845673       0.97208458        8 
O      -3.41803935       0.37964595      -1.08510616        8 
O       1.38463104       1.86145296      -0.55581535        8 
O      -0.83455255       2.09499313      -0.33615831        8 
C       1.52950126       3.27814259      -0.34696390        6 
C      -3.56345359       1.12656826       1.46703472        6 
C      -1.07771269      -1.98344369       0.13451181        6 
C      -0.25049733      -3.05276352      -0.60493324        6 
C       1.15686524      -2.39057693      -0.60385542        6 
C       0.87939616      -1.07255325       0.16921446        6 
O      -0.14404640      -1.46413672       1.09102707        8 
H      -1.58279729      -1.09778893      -1.81643731        1 
H       0.54679868      -0.18774114      -1.80066835        1 
H       1.16041765       3.55770506       0.64124782        1 
H      -4.53850710       0.67917258       1.26659767        1 
H      -0.25047202      -3.98580528      -0.03958549        1 
H      -0.63361755      -3.26166770      -1.60552402        1 
H       1.88212505      -2.99029249      -0.05196102        1 
H       1.56440600      -2.21288650      -1.59869318        1 
H       2.59653072       3.47351476      -0.42818503        1 
H       0.97749378       3.83467787      -1.10565104        1 
H      -3.50960878       2.10778284       0.99292367        1 
H      -3.39083909       1.20702900       2.53818419        1 
H      -1.96577571      -2.33981331       0.65025106        1 
C       2.07012735      -0.54589024       0.94216136        6 
O       3.16081104      -0.43267042       0.04815771        8 
H       2.29849986      -1.26334309       1.74378142        1 
H       1.84009807       0.41949312       1.40709358        1 
C       4.26337566       0.24901998       0.60836759        6 
H       5.04815214       0.26975063      -0.14824338        1 
H       4.64335807      -0.26313346       1.50407797        1 
H       3.99708480       1.28016183       0.87929303        1 
