36
Lattice="0.0 0.0 0.0 0.0 0.0 0.0 0.0 0.0 0.0" Properties=species:S:1:pos:R:3:Z:I:1 pbc="F F F"
C      -1.10096720      -0.62350808      -0.69865688        6 
C       0.33971454      -0.01212850      -0.69957643        6 
C      -2.11703632       0.08182840       0.18589644        6 
C       0.42595155       1.44747666      -0.27596815        6 
O      -3.28747969      -0.59482244       0.15971169        8 
O      -1.95940912       1.09820396       0.81247968        8 
O      -0.25258682       2.19235573      -1.18048579        8 
O       1.06056385       1.92220443       0.62945848        8 
C      -0.37017238       3.59176556      -0.87441833        6 
C      -4.35758075      -0.04199252       0.94969787        6 
C      -0.80284679      -2.03132205      -0.10589590        6 
C       0.02878071      -2.86663007      -1.10141897        6 
C       1.44108828      -2.24399306      -0.91078005        6 
C       1.14109843      -1.10144631       0.09085537        6 
O       0.13408000      -1.70705643       0.92950051        8 
H      -1.52907808      -0.68760730      -1.70013491        1 
H       0.69411204       0.00519022      -1.73239266        1 
H       0.61524765       4.05277751      -0.79334888        1 
H      -4.59941056       0.96653158       0.61101896        1 
H       0.01280601      -3.92006486      -0.81816650        1 
H      -0.34826364      -2.78860818      -2.12341169        1 
H       2.12831517      -2.95476931      -0.44909290        1 
H       1.89701261      -1.88336345      -1.83227752        1 
H      -0.92843255       4.02464891      -1.70210649        1 
H      -0.91273288       3.71925073       0.06365215        1 
H      -4.07570940      -0.01010843       2.00302313        1 
H      -5.20285070      -0.70974397       0.79858879        1 
H      -1.67031461      -2.52829813       0.31924561        1 
C       2.32202891      -0.66634510       0.93046335        6 
O       3.28418146      -0.12264686       0.03941286        8 
H       2.73063980      -1.54314165       1.45395744        1 
H       2.00890793       0.07542872       1.66794641        1 
C       4.25862512       0.66947573       0.69468051        6 
H       4.94720773       1.02802723      -0.07135959        1 
H       4.82340196       0.08289285       1.43339433        1 
H       3.79203303       1.52659288       1.19510982        1 
