36
Lattice="0.0 0.0 0.0 0.0 0.0 0.0 0.0 0.0 0.0" Properties=species:S:1:pos:R:3:Z:I:1 pbc="F F F"
C      -1.01614551       1.11267027       0.79047885        6 
C       0.33114059       0.29207924       0.90494164        6 
C      -2.21872487       0.26692006       0.39879261        6 
C       0.13869782      -1.21063855       0.90144719        6 
O      -2.49185302       0.30750311      -0.91451042        8 
O      -2.88164590      -0.34865866       1.20055475        8 
O      -0.19445840      -1.68510869      -0.31932514        8 
O       0.19945979      -1.89993552       1.88729278        8 
C      -0.50947446      -3.08779263      -0.38480258        6 
C      -3.58135435      -0.51718687      -1.35972942        6 
C      -0.60154142       2.17174793      -0.26008072        6 
C       0.42016959       3.14790302       0.36934721        6 
C       1.71937777       2.28984331       0.33642641        6 
C       1.18072551       0.95451657      -0.23485407        6 
O       0.19732175       1.40805109      -1.17386948        8 
H      -1.26587063       1.54763142       1.75794881        1 
H       0.78839129       0.49473318       1.87070291        1 
H      -1.36003142      -3.31360325       0.26048283        1 
H      -4.51421060      -0.21797067      -0.87933114        1 
H       0.51734137       4.04623180      -0.24169062        1 
H       0.13240256       3.45602666       1.37693275        1 
H       2.45310845       2.70796362      -0.35511841        1 
H       2.19700151       2.17127487       1.30887089        1 
H      -0.75403462      -3.28030640      -1.42749415        1 
H       0.34609631      -3.68882701      -0.07310119        1 
H      -3.37950628      -1.56448863      -1.12898376        1 
H      -3.63616075      -0.36643382      -2.43554831        1 
H      -1.42825325       2.62962704      -0.79596317        1 
C       2.18836462       0.07036768      -0.93906123        6 
O       2.99255471      -0.53271342       0.06051966        8 
H       2.80042543       0.67751927      -1.62145704        1 
H       1.66066447      -0.68874973      -1.52678797        1 
C       3.93111999      -1.45371113      -0.46189076        6 
H       4.47358466      -1.87420792       0.38475405        1 
H       4.64274063      -0.95988154      -1.13807722        1 
H       3.43086453      -2.26554678      -1.00813852        1 
