36
Lattice="0.0 0.0 0.0 0.0 0.0 0.0 0.0 0.0 0.0" Properties=species:S:1:pos:R:3:Z:I:1 pbc="F F F"
C      -1.12486312      -0.75181131      -0.38940198        6 
C       0.23744283      -0.04090630      -0.70523786        6 
C      -2.36002676       0.08702029      -0.12295704        6 
C       0.34464028       1.45063760      -0.41744595        6 
O      -3.41751210      -0.47673060      -0.76357950        8 
O      -2.46800214       1.06645184       0.56873239        8 
O       0.18647261       1.75527711       0.87439029        8 
O       0.64366523       2.25978598      -1.26648678        8 
C       0.18169790       3.15258054       1.20522580        6 
C      -4.69040960       0.16543248      -0.56485071        6 
C      -0.72533611      -1.69394980       0.80393408        6 
C      -0.08788537      -2.95516393       0.19405895        6 
C       1.23733618      -2.35105192      -0.35709112        6 
C       1.18563765      -0.89985922       0.20448874        6 
O       0.39971062      -1.04464269       1.39591842        8 
H      -1.38773772      -1.37173209      -1.24561113        1 
H       0.49341496      -0.14975554      -1.75616020        1 
H      -0.64508504       3.65153444       0.69748920        1 
H      -4.65545876       1.19715210      -0.91802139        1 
H       0.10614938      -3.68873899       0.97843746        1 
H      -0.70974593      -3.42410835      -0.57016714        1 
H       2.11259948      -2.87011887       0.03558816        1 
H       1.30521088      -2.36827312      -1.44504557        1 
H       0.04198068       3.19135135       2.28300159        1 
H       1.12318289       3.62332551       0.91686885        1 
H      -4.96273188       0.15753290       0.49183003        1 
H      -5.40148808      -0.41544031      -1.14825117        1 
H      -1.49909880      -1.84872360       1.55260463        1 
C       2.53979993      -0.30709937       0.53298822        6 
O       3.26849075      -0.23376048      -0.67991715        8 
H       3.04919265      -0.95554561       1.26076483        1 
H       2.42704245       0.68490970       0.98563322        1 
C       4.48601177       0.47654702      -0.55395008        6 
H       4.96194911       0.47288806      -1.53443208        1 
H       5.15658443      -0.00156036       0.17390877        1 
H       4.30809147       1.51527133      -0.24508721        1 
