36
Lattice="0.0 0.0 0.0 0.0 0.0 0.0 0.0 0.0 0.0" Properties=species:S:1:pos:R:3:Z:I:1 pbc="F F F"
C      -1.04162119      -1.11679885      -0.55620898        6 
C       0.17252807      -0.12324049      -0.63889735        6 
C      -2.36858854      -0.64619603       0.01443148        6 
C      -0.03595493       1.23953895      -0.00413414        6 
O      -2.60636389       0.65129556      -0.24358284        8 
O      -3.18144387      -1.38574467       0.51374234        8 
O      -0.01269888       2.20631100      -0.94507784        8 
O      -0.17754099       1.46189200       1.17347482        8 
C      -0.19227713       3.54780968      -0.46526579        6 
C      -3.86196189       1.17672341       0.22524905        6 
C      -0.43585925      -2.31036974       0.22200262        6 
C       0.50089197      -3.10507994      -0.70803875        6 
C       1.70055908      -2.12235215      -0.82692318        6 
C       1.25760748      -0.97502493       0.12064495        6 
O       0.48264310      -1.66366531       1.11263660        8 
H      -1.30495841      -1.42696759      -1.57328227        1 
H       0.46517823       0.04196099      -1.67225386        1 
H       0.60472385       3.81507032       0.23084519        1 
H      -3.92238084       1.09031548       1.31078676        1 
H       0.79781707      -4.03853314      -0.22794759        1 
H       0.03905698      -3.35008859      -1.66673767        1 
H       2.62454956      -2.57083786      -0.45804085        1 
H       1.88313474      -1.77167934      -1.84278671        1 
H      -0.15564108       4.18062889      -1.34943461        1 
H      -1.15459355       3.64743395       0.04002281        1 
H      -4.69440710       0.63821804      -0.22969370        1 
H      -3.86809237       2.22155345      -0.07671679        1 
H      -1.16499646      -2.88400937       0.78685926        1 
C       2.37811998      -0.21113918       0.79377565        6 
O       2.99990286       0.58738371      -0.20168053        8 
H       3.09419888      -0.92307931       1.22778800        1 
H       1.97252810       0.41042112       1.59822752        1 
C       4.02864004       1.41058992       0.31428433        6 
H       4.41067071       2.00580088      -0.51539581        1 
H       4.84857255       0.81137961       0.73429884        1 
H       3.64697523       2.08158713       1.09599743        1 
