36
Lattice="0.0 0.0 0.0 0.0 0.0 0.0 0.0 0.0 0.0" Properties=species:S:1:pos:R:3:Z:I:1 pbc="F F F"
C      -1.23038367      -0.78333200      -0.81259175        6 
C       0.17317982      -0.07880103      -0.76982429        6 
C      -2.38976489       0.13880538      -0.47230355        6 
C       0.16030011       1.31010581      -0.16220113        6 
O      -2.99791022      -0.17525675       0.67980642        8 
O      -2.75157653       1.02695556      -1.20810134        8 
O       1.04444278       2.11330683      -0.78495451        8 
O      -0.51759069       1.66623775       0.77121182        8 
C       1.14391702       3.45335763      -0.26985798        6 
C      -4.04047624       0.72131550       1.10465513        6 
C      -0.99807568      -1.99718602       0.12208251        6 
C      -0.17908357      -3.06027809      -0.63710339        6 
C       1.21996863      -2.37980710      -0.67744186        6 
C       0.95910306      -1.09095048       0.14593333        6 
O      -0.04654520      -1.49984059       1.07689768        8 
H      -1.42788751      -1.10831949      -1.83620387        1 
H       0.63043948      -0.01550701      -1.75390086        1 
H       1.46103511       3.43902146       0.77448551        1 
H      -4.83645964       0.76500632       0.35984471        1 
H      -0.15102752      -3.98982249      -0.06672965        1 
H      -0.58408153      -3.28003955      -1.62689656        1 
H       1.97909023      -2.98680767      -0.18128807        1 
H       1.57561035      -2.16164871      -1.68434227        1 
H       1.88910500       3.94642358      -0.88990561        1 
H       0.18122403       3.96111630      -0.34475612        1 
H      -3.62621068       1.71843031       1.25764276        1 
H      -4.40987632       0.31082646       2.04177242        1 
H      -1.88380301      -2.34960139       0.64090060        1 
C       2.15983261      -0.55107163       0.89311255        6 
O       3.16177324      -0.25075791      -0.06061055        8 
H       2.50758982      -1.31453222       1.60428762        1 
H       1.88441680       0.34145190       1.47147100        1 
C       4.28034243       0.40679738       0.50035468        6 
H       4.97890482       0.60352751      -0.31294836        1 
H       4.77622796      -0.21655315       1.25770225        1 
H       3.99016782       1.35981314       0.96413708        1 
