36
Lattice="0.0 0.0 0.0 0.0 0.0 0.0 0.0 0.0 0.0" Properties=species:S:1:pos:R:3:Z:I:1 pbc="F F F"
C      -1.29966327      -0.96386991      -0.74024985        6 
C       0.09993156      -0.27702950      -0.84805459        6 
C      -2.41613832      -0.20906889      -0.03786068        6 
C      -0.00855454       1.23802385      -0.94247258        6 
O      -1.97827546       0.75086557       0.79340719        8 
O      -3.57676331      -0.53159484      -0.13236440        8 
O       0.89958474       1.92316104      -0.23209660        8 
O      -0.83472889       1.76890772      -1.64684802        8 
C       0.83020246       3.35677403      -0.35040590        6 
C      -2.98795985       1.44649881       1.54556143        6 
C      -0.93542021      -2.17049358       0.17306107        6 
C       0.00273529      -3.14634217      -0.56802856        6 
C       1.36216868      -2.39769055      -0.46311137        6 
C       0.92993052      -1.07628822       0.22484957        6 
O      -0.07591506      -1.54923506       1.14008590        8 
H      -1.69482858      -1.28017736      -1.70360941        1 
H       0.51035726      -0.52845734      -1.83068769        1 
H      -0.14584100       3.71826443      -0.02414876        1 
H      -3.56222776       0.74402239       2.15076479        1 
H       0.03359823      -4.10810820      -0.05452041        1 
H      -0.31740285      -3.32526742      -1.59661028        1 
H       2.05761347      -2.93067846       0.18734944        1 
H       1.85506454      -2.23342389      -1.42088361        1 
H       1.61783804       3.73845143       0.29574632        1 
H       0.99874699       3.66246900      -1.38378641        1 
H      -3.66094543       1.97813410       0.87126476        1 
H      -2.44601908       2.14553286       2.17872022        1 
H      -1.78936631      -2.62254133       0.67246580        1 
C       2.03221769      -0.38537365       0.99693258        6 
O       3.06588366      -0.07786101       0.07593096        8 
H       2.39801453      -1.07355015       1.77315203        1 
H       1.65536291       0.51911783       1.48186630        1 
C       4.04074415       0.79374974       0.60981634        6 
H       4.78524670       0.96077018      -0.16914581        1 
H       4.53497786       0.35711781       1.48933871        1 
H       3.59559729       1.75634042       0.89550494        1 
