36
Lattice="0.0 0.0 0.0 0.0 0.0 0.0 0.0 0.0 0.0" Properties=species:S:1:pos:R:3:Z:I:1 pbc="F F F"
C      -0.80619265       1.05988573       0.39567674        6 
C       0.29093542      -0.07380815       0.49792487        6 
C      -2.20757162       0.67261327      -0.02864648        6 
C      -0.04213148      -1.36940774      -0.24331184        6 
O      -2.90774791       0.20167598       1.02344492        8 
O      -2.69536553       0.87895651      -1.11334022        8 
O      -1.22224541      -1.86377168       0.18856160        8 
O       0.63804033      -1.94280353      -1.05514717        8 
C      -1.65736819      -3.09391566      -0.41963127        6 
C      -4.25148507      -0.22351730       0.74692758        6 
C      -0.10091195       2.09673254      -0.52648697        6 
C       0.77794280       2.97582848       0.37449554        6 
C       1.81633698       1.91648738       0.84177583        6 
C       1.50084946       0.70865549      -0.09672294        6 
O       0.88157672       1.32765594      -1.23707089        8 
H      -0.92950534       1.47702173       1.39693281        1 
H       0.45222462      -0.35402798       1.53987701        1 
H      -0.92641205      -3.88504230      -0.24739750        1 
H      -4.24815950      -1.04140246       0.02374946        1 
H       1.24852657       3.76380859      -0.21588871        1 
H       0.22722788       3.44141271       1.19458040        1 
H       2.84165099       2.25279835       0.68653306        1 
H       1.71375725       1.64996829       1.89488619        1 
H      -2.60240547      -3.33455010       0.06263245        1 
H      -1.79636061      -2.95754457      -1.49308830        1 
H      -4.84443160       0.60180625       0.34979940        1 
H      -4.65245812      -0.56030025       1.70048022        1 
H      -0.75867264       2.59354911      -1.23377414        1 
C       2.72858806      -0.07251013      -0.52325641        6 
O       3.16188444      -0.81986043       0.60415602        8 
H       3.50859016       0.63560868      -0.84012591        1 
H       2.48610500      -0.73137682      -1.35794534        1 
C       4.19307492      -1.73605690       0.28787616        6 
H       4.45160618      -2.26074986       1.20818901        1 
H       5.08613668      -1.21976550      -0.09203102        1 
H       3.85751035      -2.46397319      -0.46238546        1 
