36
Lattice="0.0 0.0 0.0 0.0 0.0 0.0 0.0 0.0 0.0" Properties=species:S:1:pos:R:3:Z:I:1 pbc="F F F"
C      -1.13270316      -1.09935643      -0.59154826        6 
C       0.10832166      -0.13745064      -0.68021783        6 
C      -2.34805800      -0.53417529       0.12462598        6 
C      -0.09111355       1.23034905      -0.06247167        6 
O      -2.87405375       0.48496194      -0.59110259        8 
O      -2.81397254      -0.93982896       1.15666619        8 
O       0.36043332       2.19670360      -0.88746159        8 
O      -0.57153985       1.45473840       1.02222188        8 
C       0.26500487       3.54208736      -0.38933962        6 
C      -3.96370227       1.18998953       0.03226568        6 
C      -0.53393029      -2.31262096       0.15295423        6 
C       0.40271411      -3.09265038      -0.79160236        6 
C       1.63086614      -2.13882933      -0.85215962        6 
C       1.17752864      -0.99966506       0.09684536        6 
O       0.38465070      -1.69103217       1.06511892        8 
H      -1.45783910      -1.35868727      -1.60188759        1 
H       0.41835479       0.00953695      -1.71138741        1 
H       0.85326674       3.65404056       0.52306486        1 
H      -3.63260877       1.62092186       0.97814735        1 
H       0.66752948      -4.05370327      -0.34856580        1 
H      -0.04747103      -3.28427315      -1.76808633        1 
H       2.52753871      -2.61424851      -0.45059499        1 
H       1.86331107      -1.77865010      -1.85404781        1 
H       0.66291430       4.17335032      -1.18076144        1 
H      -0.77442414       3.79805718      -0.17794877        1 
H      -4.80321418       0.51705022       0.21247008        1 
H      -4.24369676       1.97142324      -0.67109662        1 
H      -1.26149842      -2.89441162       0.71127942        1 
C       2.28704742      -0.25065113       0.80256351        6 
O       3.04957092       0.42151906      -0.18414351        8 
H       2.90541147      -0.97238802       1.35530170        1 
H       1.86180409       0.45561167       1.52664158        1 
C       4.07951026       1.22202387       0.36203445        6 
H       4.60198567       1.68780143      -0.47377941        1 
H       4.79231550       0.61867116       0.94123504        1 
H       3.67284002       2.00744200       1.01456222        1 
