36
Lattice="0.0 0.0 0.0 0.0 0.0 0.0 0.0 0.0 0.0" Properties=species:S:1:pos:R:3:Z:I:1 pbc="F F F"
C      -0.93517622      -0.95335307      -0.45167175        6 
C       0.31532886      -0.00296890      -0.58821860        6 
C      -2.16986244      -0.34207338       0.17200245        6 
C       0.10611646       1.36672822       0.03867816        6 
O      -3.24272679      -0.52599092      -0.63480438        8 
O      -2.23499588       0.20549733       1.24326589        8 
O      -0.61416374       2.13123150      -0.82014157        8 
O       0.44311954       1.74198761       1.12930034        8 
C      -1.03467483       3.41074158      -0.31289939        6 
C      -4.49328155      -0.00665889      -0.14616578        6 
C      -0.33678126      -2.11392808       0.41050160        6 
C       0.47960158      -3.02592087      -0.52374300        6 
C       1.69095139      -2.09740892      -0.83046543        6 
C       1.40552606      -0.88126122       0.09776957        6 
O       0.67661585      -1.47439757       1.18471135        8 
H      -1.22388478      -1.32175528      -1.43445800        1 
H       0.53875154       0.16091637      -1.64088935        1 
H      -0.16983236       4.03000593      -0.07023934        1 
H      -4.42407588       1.07202120       0.00276270        1 
H       0.79276533      -3.92168041       0.01474084        1 
H      -0.07382787      -3.33500586      -1.41230751        1 
H       2.63645082      -2.56330187      -0.55001740        1 
H       1.76115082      -1.80690438      -1.87915895        1 
H      -1.61549413       3.86371582      -1.11375196        1 
H      -1.64478473       3.27566020       0.58167277        1 
H      -4.76289285      -0.48195569       0.79815956        1 
H      -5.22492930      -0.24065878      -0.91641103        1 
H      -1.04756238      -2.60676718       1.07042321        1 
C       2.63419811      -0.16951945       0.62603669        6 
O       3.17893470       0.57927634      -0.45155610        8 
H       3.36012026      -0.91179746       0.98822763        1 
H       2.35220706       0.48608738       1.45360110        1 
C       4.25738061       1.40496282      -0.05373806        6 
H       4.58932296       1.94971426      -0.93798821        1 
H       5.09558769       0.80991801       0.33547935        1 
H       3.94426516       2.12165444       0.71713420        1 
