36
Lattice="0.0 0.0 0.0 0.0 0.0 0.0 0.0 0.0 0.0" Properties=species:S:1:pos:R:3:Z:I:1 pbc="F F F"
C      -0.94209613       1.16236421       0.46990804        6 
C       0.21399224       0.13954860       0.72513327        6 
C      -2.33364304       0.64820213       0.15706708        6 
C      -0.05626638      -1.29858567       0.32256196        6 
O      -2.59308529      -0.50943013       0.79440988        8 
O      -3.16332330       1.26969992      -0.46053943        8 
O      -0.53731648      -1.39786348      -0.93372343        8 
O       0.17939801      -2.25374269       1.02127733        8 
C      -0.84469951      -2.72439233      -1.38980461        6 
C      -3.91517691      -1.05328321       0.62793302        6 
C      -0.33155818       2.09650504      -0.60765616        6 
C       0.61889335       3.08607730       0.09026688        6 
C       1.77204371       2.12667729       0.51001880        6 
C       1.33346566       0.79555224      -0.16257700        6 
O       0.58888174       1.24178085      -1.30423789        8 
H      -1.10067038       1.73208060       1.39268699        1 
H       0.51017609       0.10242400       1.77022152        1 
H      -1.61889404      -3.17051588      -0.76251622        1 
H      -4.11307698      -1.24816830      -0.42735849        1 
H       0.96658902       3.83627869      -0.62177439        1 
H       0.15327948       3.60433979       0.93120258        1 
H       2.73363451       2.44911767       0.10823722        1 
H       1.88299894       2.02145177       1.58938486        1 
H      -1.19920492      -2.60502328      -2.41131374        1 
H       0.04338908      -3.35783468      -1.36228477        1 
H      -4.66487124      -0.35984297       1.01175828        1 
H      -3.91896921      -1.97938568       1.19820255        1 
H      -1.05512855       2.51467822      -1.30150098        1 
C       2.46759113      -0.10797736      -0.59904027        6 
O       3.19264919      -0.46865994       0.56112602        8 
H       3.10554268       0.43399301      -1.31238340        1 
H       2.07685773      -0.99744059      -1.11025668        1 
C       4.15652061      -1.47734597       0.32322442        6 
H       4.64937591      -1.68045216       1.27382473        1 
H       4.90751348      -1.14991250      -0.40957914        1 
H       3.68238665      -2.39932567      -0.03945774        1 
