36
Lattice="0.0 0.0 0.0 0.0 0.0 0.0 0.0 0.0 0.0" Properties=species:S:1:pos:R:3:Z:I:1 pbc="F F F"
C      -1.21386249      -0.58513649      -0.44303238        6 
C       0.19954222       0.06520059      -0.56251438        6 
C      -2.41040330       0.27150703      -0.08436139        6 
C       0.41508611       1.39177200       0.15495635        6 
O      -3.53297623      -0.36876901      -0.50982651        8 
O      -2.44179444       1.31174164       0.51660314        8 
O       0.80860546       2.33475182      -0.73657307        8 
O       0.25954312       1.61510414       1.32515337        8 
C       1.01469685       3.65014339      -0.19318881        6 
C      -4.78277433       0.25667410      -0.16602272        6 
C      -0.95247022      -1.78862642       0.52834418        6 
C      -0.39832493      -2.94844628      -0.31744043        6 
C       0.98359184      -2.35368127      -0.71985695        6 
C       1.04033117      -1.06199195       0.14781711        6 
O       0.19965836      -1.38279308       1.26615387        8 
H      -1.46760577      -0.99989223      -1.42003636        1 
H       0.49028096       0.18787666      -1.60254135        1 
H       1.82127768       3.63905662       0.54235821        1 
H      -4.85297730       1.24643418      -0.62004762        1 
H      -0.28252413      -3.83787967       0.30453967        1 
H      -1.03256056      -3.20419422      -1.16835782        1 
H       1.80511411      -3.02141479      -0.45730447        1 
H       1.06634587      -2.13246957      -1.78447163        1 
H       1.28168781       4.27685231      -1.04158184        1 
H       0.10162881       4.00990687       0.28331832        1 
H      -4.87725229       0.35271093       0.91687000        1 
H      -5.55428808      -0.40049353      -0.56158535        1 
H      -1.76826391      -2.02194884       1.20822890        1 
C       2.42106491      -0.68091970       0.63864356        6 
O       3.18708835      -0.31840933      -0.49795636        8 
H       2.86830900      -1.54238716       1.15535001        1 
H       2.35473317       0.14791489       1.35310452        1 
C       4.49158564       0.12037901      -0.17151584        6 
H       4.98517046       0.38352033      -1.10724062        1 
H       5.06762926      -0.67066057       0.32861685        1 
H       4.46457295       1.00347917       0.48136228        1 
