36
Lattice="0.0 0.0 0.0 0.0 0.0 0.0 0.0 0.0 0.0" Properties=species:S:1:pos:R:3:Z:I:1 pbc="F F F"
C      -1.02337319      -1.05106502      -0.57773901        6 
C       0.22258637      -0.08369775      -0.71498918        6 
C      -2.39768730      -0.41053812      -0.57394630        6 
C      -0.12506677       1.37542981      -0.41117964        6 
O      -2.87410319      -0.23321967       0.67745215        8 
O      -2.97880566      -0.05584942      -1.56639686        8 
O       0.57837973       1.93171985       0.59004775        8 
O      -0.97325526       1.97914546      -1.02071425        8 
C       0.25890629       3.30197983       0.89434538        6 
C      -4.13553393       0.45580863       0.77213646        6 
C      -0.60876555      -1.92973808       0.64083205        6 
C       0.26708517      -3.06798439       0.09977431        6 
C       1.48749517      -2.24537866      -0.39455958        6 
C       1.20953617      -0.83562012       0.22880250        6 
O       0.35332412      -1.12877670       1.34677607        8 
H      -1.04451662      -1.66883458      -1.47758265        1 
H       0.57363901      -0.07931101      -1.74705772        1 
H      -0.78453815       3.38875634       1.19999836        1 
H      -4.92175741      -0.11841016       0.27924154        1 
H       0.54144598      -3.74421317       0.91146014        1 
H      -0.21741573      -3.65014411      -0.68672315        1 
H       2.43085985      -2.64630876      -0.02313223        1 
H       1.55973885      -2.19720987      -1.48206806        1 
H       0.92187412       3.57706917       1.71186973        1 
H       0.43237097       3.93701266       0.02461367        1 
H      -4.06139706       1.43827635       0.30425717        1 
H      -4.33722964       0.54586298       1.83735649        1 
H      -1.41936519      -2.20086981       1.31073374        1 
C       2.47430963      -0.13811969       0.69329094        6 
O       3.15304025       0.30804920      -0.47059079        8 
H       3.09262952      -0.85949103       1.24730041        1 
H       2.23857201       0.69722423       1.35320939        1 
C       4.34623630       1.00787618      -0.17718062        6 
H       4.78602413       1.30917352      -1.12822877        1 
H       5.06178653       0.37240935       0.36369111        1 
H       4.14482271       1.90367203       0.42673732        1 
