36
Lattice="0.0 0.0 0.0 0.0 0.0 0.0 0.0 0.0 0.0" Properties=species:S:1:pos:R:3:Z:I:1 pbc="F F F"
C      -1.18801686      -0.93600303      -0.36329466        6 
C       0.06212642      -0.01338578      -0.54723659        6 
C      -2.51927461      -0.28850484      -0.03081177        6 
C      -0.06566802       1.32902598       0.16968588        6 
O      -2.90895166       0.51566497      -1.04256898        8 
O      -3.21199013      -0.56204857       0.91675152        8 
O       1.08532885       2.02889255       0.11217626        8 
O      -1.07880181       1.78918307       0.63496088        8 
C       1.04787251       3.35077273       0.68238674        6 
C      -4.12511272       1.25033770      -0.82252597        6 
C      -0.68626235      -1.99123534       0.65611631        6 
C       0.02208758      -3.09483309      -0.14045796        6 
C       1.21787193      -2.28184445      -0.71020399        6 
C       1.13474207      -0.95792122       0.11502689        6 
O       0.42623768      -1.34496646       1.30394920        8 
H      -1.37446824      -1.42197345      -1.32604455        1 
H       0.29115007       0.19441166      -1.59255036        1 
H       0.79425537       3.30225145       1.74236674        1 
H      -4.00520851       1.91077209       0.03756544        1 
H       0.36063832      -3.88567964       0.53121018        1 
H      -0.61049931      -3.54124447      -0.91021234        1 
H       2.17389464      -2.77526090      -0.53459612        1 
H       1.14063307      -2.09317627      -1.78174213        1 
H       2.04916304       3.75260846       0.54365075        1 
H       0.31167425       3.96742213       0.16480652        1 
H      -4.96027912       0.57034697      -0.64770713        1 
H      -4.28461351       1.82858145      -1.73031117        1 
H      -1.42338081      -2.28993420       1.39542641        1 
C       2.49623748      -0.41000924       0.49047719        6 
O       3.15922181      -0.05125346      -0.70814399        8 
H       3.04869484      -1.20180929       1.01823949        1 
H       2.40594179       0.44747196       1.16279722        1 
C       4.36272002       0.65425097      -0.48478749        6 
H       4.79366076       0.87403105      -1.46189114        1 
H       5.07994566       0.05695507       0.09605746        1 
H       4.17619763       1.59790349       0.04613528        1 
