36
Lattice="0.0 0.0 0.0 0.0 0.0 0.0 0.0 0.0 0.0" Properties=species:S:1:pos:R:3:Z:I:1 pbc="F F F"
C      -0.96214998       1.17647564       0.50140330        6 
C       0.22121460       0.17545436       0.75177325        6 
C      -2.34354518       0.66865518       0.12753415        6 
C      -0.05007362      -1.28743422       0.45092603        6 
O      -2.58911153      -0.56599578       0.59595867        8 
O      -3.17929031       1.35582461      -0.40878791        8 
O      -0.32334679      -1.50445958      -0.85311454        8 
O      -0.00794253      -2.16646473       1.27531282        8 
C      -0.65885931      -2.85515502      -1.20627024        6 
C      -3.90982237      -1.09232766       0.37004396        6 
C      -0.35484370       2.14620276      -0.54709582        6 
C       0.60748689       3.11255578       0.16765205        6 
C       1.78022984       2.14879863       0.51398563        6 
C       1.31534944       0.83161972      -0.16714175        6 
O       0.54526987       1.30381380      -1.28168158        8 
H      -1.15283611       1.72028817       1.43290624        1 
H       0.53167373       0.19285587       1.79342544        1 
H      -1.54484235      -3.17952530      -0.65740933        1 
H      -4.10147652      -1.18248706      -0.70025117        1 
H       0.92877157       3.89692103      -0.51939465        1 
H       0.15941412       3.58844842       1.04223884        1 
H       2.71991151       2.48357082       0.07218032        1 
H       1.94219876       2.02283466       1.58454305        1 
H      -0.85520098      -2.83575945      -2.27620819        1 
H       0.16697470      -3.53155817      -0.97897919        1 
H      -4.66178486      -0.44108174       0.81734368        1 
H      -3.91372162      -2.06995246       0.84671074        1 
H      -1.08516615       2.59053486      -1.21706026        1 
C       2.43458654      -0.06598366      -0.65251047        6 
O       3.11920573      -0.54182795       0.49285502        8 
H       3.10675564       0.51491008      -1.30098180        1 
H       2.02864848      -0.89611301      -1.24233031        1 
C       4.10850985      -1.50617174       0.18904252        6 
H       4.55589633      -1.81580105       1.13336230        1 
H       4.89060646      -1.08894387      -0.46088136        1 
H       3.66911401      -2.38379566      -0.30461103        1 
