36
Lattice="0.0 0.0 0.0 0.0 0.0 0.0 0.0 0.0 0.0" Properties=species:S:1:pos:R:3:Z:I:1 pbc="F F F"
C      -1.37247653      -0.49722187      -0.74369695        6 
C       0.10603444      -0.04640652      -0.81583986        6 
C      -2.21416823       0.26519186       0.26917072        6 
C       0.30597577       1.45886622      -0.76429462        6 
O      -3.52449849      -0.00680002       0.05774002        8 
O      -1.81602996       0.97066174       1.15739324        8 
O       1.58495939       1.79743843      -0.51792216        8 
O      -0.56263045       2.26502496      -0.98768072        8 
C       1.87109892       3.20840046      -0.52199054        6 
C      -4.44934341       0.60525840       0.97492405        6 
C      -1.16505341      -1.91689558      -0.13629411        6 
C      -0.32633463      -2.81466430      -1.07918258        6 
C       1.12043350      -2.32447242      -0.76897183        6 
C       0.82299050      -1.09844857       0.12487032        6 
O      -0.25642832      -1.61370779       0.93024907        8 
H      -1.88009342      -0.51103002      -1.70672806        1 
H       0.45296422      -0.26726007      -1.83223313        1 
H       1.28895106       3.71544477       0.24881682        1 
H      -4.37922609       1.69232655       0.91445411        1 
H      -0.45798613      -3.86709808      -0.82549964        1 
H      -0.60891908      -2.68476075      -2.12658961        1 
H       1.67485042      -3.06575749      -0.19129827        1 
H       1.70662971      -2.07375299      -1.65249805        1 
H       2.93635349       3.28652671      -0.31554942        1 
H       1.63552148       3.64318064      -1.49439959        1 
H      -4.24032798       0.28813303       1.99795090        1 
H      -5.43505064       0.26695412       0.66229851        1 
H      -2.06906974      -2.36932218       0.26486946        1 
C       1.94440623      -0.66097056       1.04220506        6 
O       3.13568944      -0.56744186       0.28227292        8 
H       2.04803460      -1.41946929       1.83130620        1 
H       1.70148317       0.29664567       1.51557502        1 
C       4.17987991       0.08023312       0.97814588        6 
H       5.04380680       0.10492701       0.31332864        1 
H       4.44952081      -0.46034057       1.89683545        1 
H       3.89998030       1.10863698       1.24488434        1 
