36
Lattice="0.0 0.0 0.0 0.0 0.0 0.0 0.0 0.0 0.0" Properties=species:S:1:pos:R:3:Z:I:1 pbc="F F F"
C      -0.99228925       1.15119312       0.37829881        6 
C       0.20028735       0.14898649       0.67583116        6 
C      -2.27120357       0.48102174      -0.07994035        6 
C      -0.19211875      -1.28724683       0.35372841        6 
O      -3.06743881       0.22060534       0.97205450        8 
O      -2.56732933       0.24321312      -1.22614025        8 
O       0.30634907      -1.75806828      -0.79760621        8 
O      -0.95411939      -1.91681790       1.05047913        8 
C      -0.15293512      -3.06058335      -1.20423303        6 
C      -4.26289970      -0.53202380       0.69641468        6 
C      -0.34738090       2.08179141      -0.68382839        6 
C       0.52697583       3.10764007       0.05717136        6 
C       1.67172785       2.18309829       0.56127174        6 
C       1.33158230       0.83309020      -0.14578675        6 
O       0.63238433       1.25464448      -1.32724967        8 
H      -1.23134717       1.69661306       1.29104281        1 
H       0.42318163       0.14791327       1.74135593        1 
H      -1.22986488      -3.03853930      -1.37590416        1 
H      -3.99864078      -1.52869713       0.33981317        1 
H       0.89963394       3.85678764      -0.64340788        1 
H      -0.00477063       3.62387150       0.85935543        1 
H       2.65056737       2.54021522       0.23837371        1 
H       1.69914544       2.07956526       1.64679292        1 
H       0.37537960      -3.27436698      -2.13076579        1 
H       0.08053758      -3.80555138      -0.44257746        1 
H      -4.87325340      -0.02383873      -0.05129915        1 
H      -4.78874977      -0.59760161       1.64604942        1 
H      -1.03979641       2.46864231      -1.42686850        1 
C       2.54478535       0.00211017      -0.51667167        6 
O       3.01131032      -0.61615726       0.67348131        8 
H       3.31808530       0.65899174      -0.93989500        1 
H       2.27693857      -0.74715536      -1.26473504        1 
C       4.11775044      -1.46910009       0.45047079        6 
H       4.38037402      -1.91508832       1.40993926        1 
H       4.98273667      -0.91151911       0.06459458        1 
H       3.86633415      -2.26631797      -0.26239810        1 
