36
Lattice="0.0 0.0 0.0 0.0 0.0 0.0 0.0 0.0 0.0" Properties=species:S:1:pos:R:3:Z:I:1 pbc="F F F"
C      -1.08306236      -0.66205116      -0.72034545        6 
C       0.32719941      -0.00110315      -0.73056171        6 
C      -2.06147016      -0.03446299       0.25943541        6 
C       0.35277306       1.48317996      -0.40017741        6 
O      -3.27415072      -0.61754519       0.12827651        8 
O      -1.82983890       0.83794396       1.05721268        8 
O      -0.60904412       2.10444315      -1.12437606        8 
O       1.17504729       2.07753741       0.24771092        8 
C      -0.74946109       3.51723302      -0.90222680        6 
C      -4.30162303      -0.15119349       1.02359046        6 
C      -0.71207413      -2.06644515      -0.15852693        6 
C       0.18929350      -2.82918698      -1.15414137        6 
C       1.56904633      -2.15894953      -0.89216803        6 
C       1.17461544      -1.03381270       0.09364021        6 
O       0.18348054      -1.70550693       0.90181045        8 
H      -1.55102690      -0.71255049      -1.70294159        1 
H       0.69167246      -0.01126442      -1.76236792        1 
H       0.18528539       4.03716665      -1.11629585        1 
H      -4.49157139       0.91131774       0.86380474        1 
H       0.20579218      -3.89352267      -0.91581402        1 
H      -0.15480192      -2.72175670      -2.18520882        1 
H       2.25691040      -2.84608332      -0.39679331        1 
H       2.05689571      -1.77915407      -1.78933360        1 
H      -1.53387932       3.84204404      -1.58279475        1 
H      -1.04092875       3.70049499       0.13326044        1 
H      -4.00521801      -0.31109097       2.06119119        1 
H      -5.18488261      -0.73814289       0.78140650        1 
H      -1.55462815      -2.62562934       0.24059904        1 
C       2.29600642      -0.52405910       0.97035046        6 
O       3.32013390      -0.05702799       0.10829101        8 
H       2.66034204      -1.35427937       1.59302480        1 
H       1.93554543       0.27529959       1.62216006        1 
C       4.23473319       0.81192570       0.75242986        6 
H       4.96485393       1.11884988       0.00263852        1 
H       4.76037601       0.30424623       1.57410736        1 
H       3.72015928       1.69782279       1.14223061        1 
