36
Lattice="0.0 0.0 0.0 0.0 0.0 0.0 0.0 0.0 0.0" Properties=species:S:1:pos:R:3:Z:I:1 pbc="F F F"
C      -1.22957023      -0.83801855      -0.53579072        6 
C       0.16606144      -0.15272189      -0.73938337        6 
C      -2.24387639       0.00468719       0.21292197        6 
C       0.06817467       1.36434086      -0.62911705        6 
O      -3.46454119      -0.12063515      -0.35105302        8 
O      -2.03328448       0.63899744       1.21604245        8 
O       1.06602068       1.95673372       0.03826346        8 
O      -0.83492035       1.97634744      -1.15034937        8 
C       0.98345765       3.39177023       0.14234892        6 
C      -4.52952791       0.60636798       0.28884951        6 
C      -0.82315318      -2.05011364       0.35230778        6 
C      -0.04675549      -3.07415793      -0.50033440        6 
C       1.33316784      -2.36742911      -0.62411035        6 
C       1.08402926      -1.05064160       0.16431746        6 
O       0.18778670      -1.49149629       1.19780316        8 
H      -1.67387977      -1.15508499      -1.47679189        1 
H       0.46697882      -0.29418447      -1.78088519        1 
H       0.05698241       3.67861988       0.64056530        1 
H      -4.31150910       1.67514449       0.28290332        1 
H       0.03611295      -4.02362256       0.03066642        1 
H      -0.52657885      -3.26437962      -1.46228401        1 
H       2.12000839      -2.93970888      -0.12993773        1 
H       1.64665932      -2.18898052      -1.65260815        1 
H       1.84717404       3.68703937       0.73413379        1 
H       1.02115390       3.84777727      -0.84780036        1 
H      -4.65862564       0.27004713       1.31893494        1 
H      -5.41976970       0.39326990      -0.29898808        1 
H      -1.62854480      -2.45460746       0.96215785        1 
C       2.32847713      -0.46517179       0.79391670        6 
O       3.21152101      -0.11020133      -0.25808528        8 
H       2.78399548      -1.22961148       1.43966366        1 
H       2.07564896       0.40381861       1.40569717        1 
C       4.31291491       0.65562412       0.18612291        6 
H       4.92927099       0.87174131      -0.68705797        1 
H       4.91566066       0.10586879       0.92301797        1 
H       3.98032677       1.60053133       0.63661993        1 
