36
Lattice="0.0 0.0 0.0 0.0 0.0 0.0 0.0 0.0 0.0" Properties=species:S:1:pos:R:3:Z:I:1 pbc="F F F"
C      -0.90480560       1.12046734       0.42655831        6 
C       0.22810728       0.07032002       0.67115215        6 
C      -2.30140909       0.60375763       0.14786045        6 
C       0.00149714      -1.33785253       0.14663282        6 
O      -2.70112915      -0.22295629       1.14008901        8 
O      -3.01015511       0.94219848      -0.76584043        8 
O      -0.97210691      -1.40428406      -0.77677478        8 
O       0.69387928      -2.28245960       0.44578878        8 
C      -1.19116979      -2.68007592      -1.40184971        6 
C      -4.00184767      -0.81432831       0.98013382        6 
C      -0.30247528       2.01166517      -0.69087143        6 
C       0.61946502       3.04389700      -0.02435679        6 
C       1.74833825       2.10891479       0.49727947        6 
C       1.37508911       0.75253739      -0.17172704        6 
O       0.64866326       1.14933571      -1.34328504        8 
H      -1.01987462       1.70685991       1.34406794        1 
H       0.51038001      -0.02301917       1.71746489        1 
H      -1.45143074      -3.43063051      -0.65380526        1 
H      -4.03106045      -1.41536388       0.06933841        1 
H       0.99779710       3.74530351      -0.76980724        1 
H       0.12455103       3.61527648       0.76394745        1 
H       2.73373021       2.43216425       0.15983526        1 
H       1.78486583       2.02778302       1.58395451        1 
H      -2.01338642      -2.52120316      -2.09578003        1 
H      -0.29509910      -2.99939101      -1.93599449        1 
H      -4.77207625      -0.04364463       0.92546678        1 
H      -4.14706932      -1.44159259       1.85692891        1 
H      -1.02628627       2.37863256      -1.41253534        1 
C       2.56851774      -0.09873555      -0.55158955        6 
O       3.28795528      -0.37200007       0.63611277        8 
H       3.18791731       0.46248897      -1.26658996        1 
H       2.24937147      -1.02735252      -1.03682944        1 
C       4.20496721      -1.44257318       0.49712497        6 
H       4.70802427      -1.55867365       1.45726651        1 
H       4.95573819      -1.22918257      -0.27690792        1 
H       3.68123281      -2.37385112       0.24807562        1 
