36
Lattice="0.0 0.0 0.0 0.0 0.0 0.0 0.0 0.0 0.0" Properties=species:S:1:pos:R:3:Z:I:1 pbc="F F F"
C      -0.79675836      -0.92741938      -0.63572530        6 
C       0.38326353       0.11416002      -0.66597991        6 
C      -2.22344271      -0.41531299      -0.66813684        6 
C       0.13054468       1.47835639      -0.01440869        6 
O      -2.87865522      -0.63012047       0.49117490        8 
O      -2.72963918       0.09492364      -1.63644105        8 
O      -1.16408448       1.83280764      -0.04992090        8 
O       0.97879875       2.18178290       0.47810117        8 
C      -1.50291971       3.10326961       0.53311860        6 
C      -4.23593909      -0.15756561       0.54099965        6 
C      -0.35554369      -1.88820105       0.51153241        6 
C       0.53212722      -2.96073441      -0.13126016        6 
C       1.71276643      -2.06626208      -0.60107129        6 
C       1.43009989      -0.72317214       0.14916881        6 
O       0.60700432      -1.12590169       1.26085508        8 
H      -0.73357327      -1.46927719      -1.58334669        1 
H       0.71684198       0.31033905      -1.68614768        1 
H      -0.94142910       3.90531625       0.05284867        1 
H      -4.83760086      -0.63492351      -0.23383393        1 
H       0.85193293      -3.68502751       0.62022085        1 
H       0.03963553      -3.49906796      -0.94409191        1 
H       2.67959125      -2.46788462      -0.29821064        1 
H       1.74334497      -1.92416397      -1.68235591        1 
H      -2.56951605       3.22367827       0.35652558        1 
H      -1.28525164       3.09831352       1.60214450        1 
H      -4.26388427       0.92405979       0.39963465        1 
H      -4.60076558      -0.42445221       1.53054760        1 
H      -1.15158026      -2.22296123       1.16861545        1 
C       2.69611679      -0.05106129       0.64125800        6 
O       3.39870487       0.39455612      -0.50761250        8 
H       3.28981646      -0.79335475       1.19550956        1 
H       2.46488662       0.78075620       1.30650687        1 
C       4.45409865       1.28550192      -0.19763202        6 
H       4.91166345       1.58178532      -1.14204023        1 
H       5.21587107       0.80363985       0.43190829        1 
H       4.07472700       2.17687575       0.31746328        1 
