36
Lattice="0.0 0.0 0.0 0.0 0.0 0.0 0.0 0.0 0.0" Properties=species:S:1:pos:R:3:Z:I:1 pbc="F F F"
C      -1.11732762      -0.59381896      -0.77023071        6 
C       0.31698851       0.01257005      -0.74734429        6 
C      -2.06146280       0.02413279       0.25648546        6 
C       0.40156011       1.49646430      -0.42745307        6 
O      -3.21824811      -0.67268035       0.29714646        8 
O      -1.86180468       1.00545275       0.92632686        8 
O      -0.49611926       2.15596476      -1.19743696        8 
O       1.23542078       2.05589707       0.23727522        8 
C      -0.57653411       3.57550717      -0.99231811        6 
C      -4.21355767      -0.19453364       1.22169941        6 
C      -0.79259407      -2.03497475      -0.28527799        6 
C       0.12979545      -2.76553313      -1.28605060        6 
C       1.51781994      -2.16101960      -0.92722456        6 
C       1.10987159      -1.06109605       0.07876053        6 
O       0.07410061      -1.73940576       0.82388682        8 
H      -1.59421092      -0.56166942      -1.75022115        1 
H       0.69604753      -0.01109883      -1.77404835        1 
H       0.38602432       4.05030604      -1.18786514        1 
H      -4.50482334       0.82710922       0.97293534        1 
H       0.10162863      -3.84274993      -1.11720532        1 
H      -0.16577586      -2.58191433      -2.32175887        1 
H       2.15094942      -2.89331925      -0.42335261        1 
H       2.06776697      -1.76763303      -1.78148719        1 
H      -1.32803684       3.92865497      -1.69558959        1 
H      -0.88552625       3.78318323       0.03340228        1 
H      -3.82785515      -0.22115797       2.24169834        1 
H      -5.05828899      -0.87111101       1.11251878        1 
H      -1.65561780      -2.59620838       0.06044955        1 
C       2.20427437      -0.60479270       1.01742261        6 
O       3.28753081      -0.16512358       0.21622293        8 
H       2.50367170      -1.45735474       1.64450619        1 
H       1.84280083       0.19913480       1.66366459        1 
C       4.19898808       0.66034831       0.91880080        6 
H       4.97044020       0.95988517       0.20846779        1 
H       4.67267299       0.11951612       1.75100979        1 
H       3.69573332       1.55406637       1.30549333        1 
