36
Lattice="0.0 0.0 0.0 0.0 0.0 0.0 0.0 0.0 0.0" Properties=species:S:1:pos:R:3:Z:I:1 pbc="F F F"
C      -1.17159261      -1.05722978      -0.55833516        6 
C       0.07970359      -0.11493302      -0.65278063        6 
C      -2.42018144      -0.45030109       0.05860259        6 
C      -0.08226004       1.23490850       0.01536619        6 
O      -2.86217468       0.57357101      -0.70484487        8 
O      -2.98462461      -0.84517998       1.04496270        8 
O       0.56869016       2.18910244      -0.68248859        8 
O      -0.67744473       1.45486069       1.04164775        8 
C       0.53238498       3.51250324      -0.12081070        6 
C      -3.98362996       1.30708292      -0.17863345        6 
C      -0.61467745      -2.24679361       0.25895110        6 
C       0.27358074      -3.11685473      -0.65002245        6 
C       1.51322648      -2.19229298      -0.82374292        6 
C       1.14202327      -1.00271082       0.10055826        6 
O       0.35027834      -1.61879536       1.11977158        8 
H      -1.45612913      -1.36761496      -1.56720912        1 
H       0.38181399       0.05585725      -1.68301087        1 
H       0.98340274       3.51973864       0.87299680        1 
H      -3.72251278       1.73587262       0.78981914        1 
H       0.53866597      -4.04214904      -0.13647478        1 
H      -0.21058924      -3.37879739      -1.59312106        1 
H       2.42614147      -2.66841385      -0.46290850        1 
H       1.68777434      -1.87560106      -1.85185374        1 
H       1.10468024       4.13365402      -0.80621740        1 
H      -0.49677071       3.86770641      -0.04726506        1 
H      -4.85098658       0.65485160      -0.06663397        1 
H      -4.18537992       2.09051721      -0.90609215        1 
H      -1.35898792      -2.75968940       0.86085755        1 
C       2.31509175      -0.28803069       0.73699529        6 
O       3.13528117       0.21494082      -0.30162234        8 
H       2.86602727      -1.00654593       1.36077101        1 
H       1.96201889       0.52114051       1.39091023        1 
C       4.19936082       1.01513539       0.17359983        6 
H       4.76322894       1.35050630      -0.69692162        1 
H       4.86598570       0.44634950       0.83703537        1 
H       3.82456162       1.89239688       0.71923738        1 
