36
Lattice="0.0 0.0 0.0 0.0 0.0 0.0 0.0 0.0 0.0" Properties=species:S:1:pos:R:3:Z:I:1 pbc="F F F"
C      -0.86828226       1.05855885       0.34251077        6 
C       0.23934370      -0.01577637       0.59857931        6 
C      -2.30440737       0.61662959       0.15762202        6 
C       0.01929137      -1.39465355      -0.02250667        6 
O      -2.72171181      -0.08283496       1.23561616        8 
O      -3.03161070       0.95132105      -0.74408582        8 
O      -1.19768543      -1.54549873      -0.57245672        8 
O       0.87559668      -2.24290467      -0.10574052        8 
C      -1.43488187      -2.76833521      -1.29242173        6 
C      -4.07300243      -0.56890001       1.18501014        6 
C      -0.26435726       1.90473293      -0.81065262        6 
C       0.60651172       2.98904777      -0.16384989        6 
C       1.69190976       2.09020145       0.49442044        6 
C       1.41632648       0.70279154      -0.16894931        6 
O       0.73482491       1.04363126      -1.39048094        8 
H      -0.91953270       1.67568153       1.24583254        1 
H       0.46607199      -0.15603437       1.65478763        1 
H      -1.37769816      -3.62387133      -0.61775199        1 
H      -4.19283809      -1.26277943       0.35056322        1 
H       1.03622228       3.63372355      -0.93217112        1 
H       0.06308058       3.61294697       0.54894940        1 
H       2.70194145       2.42488416       0.25792492        1 
H       1.61143663       2.03994201       1.58124664        1 
H      -2.43579786      -2.66752630      -1.70598297        1 
H      -0.69950680      -2.88512878      -2.08898002        1 
H      -4.77669092       0.25646878       1.06839256        1 
H      -4.23490898      -1.08106661       2.13104351        1 
H      -0.97864260       2.21053301      -1.56937423        1 
C       2.68239394      -0.07043206      -0.47280107        6 
O       3.29858573      -0.37485310       0.76675358        8 
H       3.33605852       0.56802462      -1.08569608        1 
H       2.46310401      -0.98041553      -1.03454578        1 
C       4.31062333      -1.35819238       0.65056213        6 
H       4.71828701      -1.51791864       1.64922070        1 
H       5.11923133      -1.02505093      -0.01571341        1 
H       3.89701440      -2.30120984       0.27220882        1 
