36
Lattice="0.0 0.0 0.0 0.0 0.0 0.0 0.0 0.0 0.0" Properties=species:S:1:pos:R:3:Z:I:1 pbc="F F F"
C      -0.93858761       1.18241037       0.48130080        6 
C       0.21659076       0.15417903       0.73586042        6 
C      -2.30674251       0.64239259       0.11265857        6 
C      -0.07034690      -1.28404807       0.34798895        6 
O      -2.61762213      -0.43664784       0.85889497        8 
O      -3.07696531       1.17114688      -0.64952399        8 
O      -0.57496855      -1.38518620      -0.89958730        8 
O       0.16274268      -2.23737286       1.04955422        8 
C      -0.89533833      -2.71161059      -1.34833448        6 
C      -3.90738606      -1.02931377       0.62248658        6 
C      -0.31319982       2.12636175      -0.57578685        6 
C       0.65184905       3.09082287       0.13839671        6 
C       1.80250665       2.11474303       0.52443954        6 
C       1.33780608       0.79864591      -0.15775156        6 
O       0.59297607       1.26851904      -1.28860281        8 
H      -1.12193288       1.73278326       1.41048018        1 
H       0.51699879       0.12211206       1.77987464        1 
H      -1.65129259      -3.15938584      -0.70044583        1 
H      -3.98533548      -1.35891702      -0.41506548        1 
H       0.99821424       3.85700605      -0.55698279        1 
H       0.19746647       3.59038181       0.99664432        1 
H       2.75950803       2.43245163       0.10813645        1 
H       1.93234182       1.99434203       1.60001821        1 
H      -1.27768934      -2.59072849      -2.35950638        1 
H      -0.00620534      -3.34420581      -1.34597321        1 
H      -4.70259134      -0.31262693       0.83217580        1 
H      -3.96370045      -1.87762485       1.30071184        1 
H      -1.02978330       2.56466397      -1.26423452        1 
C       2.45205931      -0.12031216      -0.61254371        6 
O       3.18138822      -0.50424518       0.53749028        8 
H       3.09260530       0.41682094      -1.32713758        1 
H       2.04103496      -0.99810200      -1.12840445        1 
C       4.12688517      -1.52559500       0.28122318        6 
H       4.62544685      -1.74517142       1.22515100        1 
H       4.87599080      -1.20339622      -0.45581925        1 
H       3.63490241      -2.43673264      -0.08509785        1 
