36
Lattice="0.0 0.0 0.0 0.0 0.0 0.0 0.0 0.0 0.0" Properties=species:S:1:pos:R:3:Z:I:1 pbc="F F F"
C      -0.85263964       0.97549214       0.62531023        6 
C       0.36313885      -0.02054992       0.69270476        6 
C      -2.25540193       0.39599108       0.63355636        6 
C       0.16540719      -1.44572629       0.18178791        6 
O      -2.87535326       0.50969593      -0.55750925        8 
O      -2.78569627      -0.04839307       1.62258166        8 
O      -1.11841899      -1.76822862      -0.03661323        8 
O       1.07217178      -2.21687071      -0.02624385        8 
C      -1.37511947      -3.10085934      -0.51506115        6 
C      -4.21051478      -0.01822130      -0.62265894        6 
C      -0.44943331       1.89915032      -0.56526049        6 
C       0.44922636       3.00442380       0.00277016        6 
C       1.67073656       2.15112873       0.44179500        6 
C       1.36364154       0.77273330      -0.22551676        6 
O       0.49099960       1.11215931      -1.31672684        8 
H      -0.83221808       1.55401797       1.55185302        1 
H       0.74941000      -0.11465024       1.70834775        1 
H      -0.98710186      -3.83789728       0.18879675        1 
H      -4.86248057       0.49679514       0.08459208        1 
H       0.71746592       3.70993014      -0.78572302        1 
H      -0.01558139       3.55971355       0.82014348        1 
H       2.61051579       2.55238180       0.06198517        1 
H       1.77053327       2.05941614       1.52399928        1 
H      -2.45745565      -3.17606548      -0.59036326        1 
H      -0.90867556      -3.24853413      -1.48993815        1 
H      -4.20741541      -1.08496373      -0.39250743        1 
H      -4.54106624       0.15245320      -1.64495397        1 
H      -1.26820958       2.20384882      -1.20881464        1 
C       2.60410942       0.07323199      -0.74132534        6 
O       3.41881266      -0.21206192       0.38211033        8 
H       3.12016432       0.75393574      -1.43451881        1 
H       2.34407581      -0.83986079      -1.28006837        1 
C       4.41816683      -1.17853333       0.11315661        6 
H       4.97289045      -1.33073243       1.03958002        1 
H       5.11370896      -0.83298167      -0.66528708        1 
H       3.96760174      -2.12812868      -0.20027520        1 
