36
Lattice="0.0 0.0 0.0 0.0 0.0 0.0 0.0 0.0 0.0" Properties=species:S:1:pos:R:3:Z:I:1 pbc="F F F"
C      -1.01254886      -1.01737278      -0.80255307        6 
C       0.23435887      -0.08651890      -0.79024083        6 
C      -2.18961976      -0.63655376       0.08309450        6 
C      -0.02826965       1.39806383      -0.61205314        6 
O      -1.88197051       0.26543066       1.02967376        8 
O      -3.26174833      -1.19048941       0.01481815        8 
O      -1.19764066       1.72650540      -1.21112677        8 
O       0.74595599       2.22247909      -0.19568059        8 
C      -1.53934210       3.12187714      -1.21756207        6 
C      -2.91509453       0.56430926       1.98472973        6 
C      -0.38735246      -2.28488800      -0.14280409        6 
C       0.71276923      -2.88896748      -1.04494802        6 
C       1.90774285      -1.93441563      -0.75308051        6 
C       1.22683009      -0.87088681       0.14091320        6 
O       0.35259502      -1.69567942       0.93709983        8 
H      -1.40405678      -1.21135522      -1.79947029        1 
H       0.65837050      -0.09939371      -1.80067139        1 
H      -0.77118047       3.70423912      -1.72852945        1 
H      -3.18478535      -0.33318848       2.54326737        1 
H       0.93213653      -3.91366236      -0.74252043        1 
H       0.41873693      -2.90612096      -2.09683220        1 
H       2.68908530      -2.43976973      -0.18315855        1 
H       2.36320289      -1.50453515      -1.64463269        1 
H      -2.48658669       3.18557025      -1.74878745        1 
H      -1.64872988       3.48965021      -0.19571396        1 
H      -3.80075950       0.95306497       1.47968400        1 
H      -2.48773412       1.31366385       2.64711529        1 
H      -1.11937085      -2.98779842       0.24804253        1 
C       2.15846500      -0.08735079       1.03888344        6 
O       3.17011846       0.47054136       0.21904236        8 
H       2.59211404      -0.77591950       1.77869833        1 
H       1.60977331       0.69408840       1.57401503        1 
C       3.85796433       1.54268828       0.83653826        6 
H       4.60612024       1.89334927       0.12495887        1 
H       4.36473237       1.21724202       1.75636337        1 
H       3.16884200       2.36263202       1.07040901        1 
