36
Lattice="0.0 0.0 0.0 0.0 0.0 0.0 0.0 0.0 0.0" Properties=species:S:1:pos:R:3:Z:I:1 pbc="F F F"
C      -1.19750430      -0.58621615      -0.50852182        6 
C       0.22809131       0.03809538      -0.58853653        6 
C      -2.36395486       0.33301293      -0.21348036        6 
C       0.40529698       1.36185780       0.14445792        6 
O      -3.50730590      -0.39397225      -0.18890997        8 
O      -2.33447623       1.52182958      -0.02830991        8 
O       0.85297884       2.30992253      -0.70846439        8 
O       0.19434293       1.56415689       1.31192074        8 
C       0.99889556       3.62604492      -0.14729195        6 
C      -4.71607192       0.33729522       0.09085919        6 
C      -0.98688123      -1.80358141       0.45000555        6 
C      -0.41250808      -2.96099839      -0.38631642        6 
C       0.99365366      -2.38417988      -0.72558476        6 
C       1.02906534      -1.09780524       0.15020465        6 
O       0.14390474      -1.41751090       1.23407496        8 
H      -1.44250920      -0.98529835      -1.49804590        1 
H       0.55888180       0.16347186      -1.61606886        1 
H       1.72276889       3.61822064       0.66957244        1 
H      -4.88345348       1.10287719      -0.66824710        1 
H      -0.33498719      -3.85915979       0.22889102        1 
H      -1.01491362      -3.19919830      -1.26528835        1 
H       1.79364326      -3.06439742      -0.43044941        1 
H       1.12600755      -2.15891905      -1.78436921        1 
H       1.35081579       4.25276047      -0.96403713        1 
H       0.03783687       3.98113375       0.22771930        1 
H      -4.65527903       0.81087669       1.07179665        1 
H      -5.51315469      -0.40272117       0.07081488        1 
H      -1.83088373      -2.03446507       1.09375720        1 
C       2.39319594      -0.72847105       0.69309582        6 
O       3.20558109      -0.37732601      -0.41455659        8 
H       2.81253212      -1.59214523       1.22917411        1 
H       2.30702894       0.10383754       1.40132599        1 
C       4.49686217       0.06184799      -0.04008342        6 
H       5.02826311       0.31534847      -0.95760955        1 
H       5.05064822      -0.72549298       0.49023039        1 
H       4.44586978       0.95127587       0.60284769        1 
