36
Lattice="0.0 0.0 0.0 0.0 0.0 0.0 0.0 0.0 0.0" Properties=species:S:1:pos:R:3:Z:I:1 pbc="F F F"
C      -1.08708275      -0.65982069      -0.72835892        6 
C       0.32001517       0.00312163      -0.73515418        6 
C      -2.05465364      -0.05044295       0.27439657        6 
C       0.34770492       1.49162751      -0.42714835        6 
O      -3.26969366      -0.62905252       0.14455876        8 
O      -1.81285194       0.80560078       1.08665750        8 
O      -0.65938457       2.09691312      -1.10091567        8 
O       1.21181345       2.10161745       0.14846376        8 
C      -0.78098291       3.51612218      -0.91115180        6 
C      -4.28654185      -0.17928434       1.06012019        6 
C      -0.70740745      -2.06910848      -0.18473734        6 
C       0.20909109      -2.81052200      -1.18339871        6 
C       1.58384892      -2.14110294      -0.89331102        6 
C       1.16972635      -1.02506849       0.09408759        6 
O       0.17706688      -1.71228377       0.88705025        8 
H      -1.56342598      -0.69667332      -1.70736349        1 
H       0.68860882      -0.01468980      -1.76599927        1 
H       0.14308848       4.02418934      -1.19015096        1 
H      -4.46812878       0.88894010       0.93208893        1 
H       0.22605876      -3.87940224      -0.96668131        1 
H      -0.12323403      -2.68292173      -2.21610912        1 
H       2.26389203      -2.83124198      -0.39137102        1 
H       2.08621532      -1.75370961      -1.77912938        1 
H      -1.60009342       3.82650875      -1.55663139        1 
H      -1.01513883       3.73077082       0.13283710        1 
H      -3.98404465      -0.37128161       2.09056256        1 
H      -5.17665574      -0.75164066       0.80823335        1 
H      -1.54714285      -2.64130593       0.20163747        1 
C       2.27634575      -0.50811561       0.98528586        6 
O       3.32503461      -0.07017481       0.13819622        8 
H       2.61631622      -1.32916920       1.63345671        1 
H       1.91030633       0.30863694       1.61248392        1 
C       4.23252237       0.80504492       0.78350597        6 
H       4.97888764       1.09313474       0.04231219        1 
H       4.73900525       0.30999020       1.62477862        1 
H       3.71655460       1.70165339       1.14580117        1 
