36
Lattice="0.0 0.0 0.0 0.0 0.0 0.0 0.0 0.0 0.0" Properties=species:S:1:pos:R:3:Z:I:1 pbc="F F F"
C      -0.99839972      -1.13599796      -0.58957212        6 
C       0.21068379      -0.12971231      -0.65282672        6 
C      -2.30336170      -0.70222423       0.06170654        6 
C      -0.03886195       1.24760724      -0.06667855        6 
O      -2.58983951       0.58989873      -0.17284786        8 
O      -3.05810132      -1.45888277       0.62224445        8 
O      -0.18842253       2.15544305      -1.05327838        8 
O      -0.06403749       1.53126817       1.10636586        8 
C      -0.46193582       3.49880969      -0.62630616        6 
C      -3.82415972       1.08064539       0.38375635        6 
C      -0.36371849      -2.34263066       0.14182458        6 
C       0.60682706      -3.07584595      -0.80410497        6 
C       1.79448608      -2.07249721      -0.84765048        6 
C       1.29734522      -0.96225832       0.11720542        6 
O       0.52121843      -1.70118842       1.07159531        8 
H      -1.28951378      -1.40863736      -1.60915637        1 
H       0.51036071       0.02309753      -1.68665118        1 
H       0.36478234       3.88694869      -0.02895370        1 
H      -3.81059566       0.98426483       1.46999061        1 
H       0.90747502      -4.02806109      -0.36489208        1 
H       0.16951664      -3.27991636      -1.78382528        1 
H       2.70946763      -2.51971811      -0.45519017        1 
H       2.01122751      -1.68921582      -1.84478967        1 
H      -0.57878912       4.07787984      -1.53980926        1 
H      -1.37644748       3.52870148      -0.03126521        1 
H      -4.67127758       0.52473094      -0.02011857        1 
H      -3.87636546       2.12715434       0.09234537        1 
H      -1.08161746      -2.95903296       0.67471299        1 
C       2.38023914      -0.17882494       0.82786432        6 
O       2.97802164       0.67421466      -0.13804065        8 
H       3.12125713      -0.87457581       1.24600599        1 
H       1.94108732       0.40247193       1.64355195        1 
C       3.92276233       1.56552886       0.42424965        6 
H       4.28754688       2.19994168      -0.38397748        1 
H       4.77116120       1.02461811       0.86628789        1 
H       3.46083172       2.19229913       1.19856926        1 
