36
Lattice="0.0 0.0 0.0 0.0 0.0 0.0 0.0 0.0 0.0" Properties=species:S:1:pos:R:3:Z:I:1 pbc="F F F"
C      -1.45993086      -0.62856891      -0.86232299        6 
C       0.01050911      -0.13497250      -0.86383980        6 
C      -2.50688142       0.13378653      -0.06054148        6 
C       0.22625313       1.36716188      -0.80618270        6 
O      -2.02978967       0.69929908       1.05359048        8 
O      -3.68273778       0.09670094      -0.34481315        8 
O       1.54167359       1.65179085      -0.91441232        8 
O      -0.62560958       2.21639801      -0.72758654        8 
C       1.88964153       3.04717903      -0.91724375        6 
C      -2.98393205       1.40301173       1.86494477        6 
C      -1.25021261      -1.99828650      -0.14515392        6 
C      -0.33851022      -2.92885931      -0.98511490        6 
C       1.07859653      -2.38216330      -0.63185304        6 
C       0.70033145      -1.11788058       0.17102091        6 
O      -0.40540237      -1.61203573       0.94609635        8 
H      -1.86478848      -0.74415279      -1.86662944        1 
H       0.43030613      -0.38650216      -1.84226649        1 
H       1.57533424       3.52192067       0.01382554        1 
H      -3.76432957       0.72550246       2.21541119        1 
H      -0.45844467      -3.96675113      -0.67282521        1 
H      -0.56668533      -2.87146627      -2.05183683        1 
H       1.62118758      -3.07280548       0.01558119        1 
H       1.70265807      -2.16398741      -1.49784364        1 
H       2.97274067       3.07326239      -1.01500428        1 
H       1.41563968       3.55864394      -1.75654180        1 
H      -3.43785752       2.21479334       1.29441093        1 
H      -2.41388665       1.79790981       2.70291519        1 
H      -2.16435506      -2.44970293       0.23396270        1 
C       1.75557688      -0.57990672       1.11488094        6 
O       2.99981767      -0.55704172       0.44169712        8 
H       1.79968114      -1.24454134       1.98945006        1 
H       1.48055217       0.42286571       1.46735495        1 
C       3.99498191       0.15055428       1.15092357        6 
H       4.90925110       0.10049927       0.55911301        1 
H       4.18242145      -0.29494492       2.13842207        1 
H       3.71189499       1.20370772       1.28813064        1 
