36
Lattice="0.0 0.0 0.0 0.0 0.0 0.0 0.0 0.0 0.0" Properties=species:S:1:pos:R:3:Z:I:1 pbc="F F F"
C      -1.37917890      -0.67640899      -0.88139473        6 
C       0.07884519      -0.10757275      -0.83658000        6 
C      -2.51045514       0.15599048      -0.28840549        6 
C       0.24060580       1.36640073      -0.51127229        6 
O      -2.43430294       0.28844819       1.03980878        8 
O      -3.45387723       0.52988390      -0.94864831        8 
O       1.38407363       1.82635399      -1.06502587        8 
O      -0.50069364       2.06589619       0.13326122        8 
C       1.70513045       3.20296475      -0.80170523        6 
C      -3.44760408       1.10170955       1.65176152        6 
C      -1.17596271      -1.98833681      -0.06728837        6 
C      -0.30392859      -2.98052314      -0.87214144        6 
C       1.11994729      -2.38694724      -0.65121752        6 
C       0.78294545      -1.11346282       0.16022579        6 
O      -0.29776091      -1.56519410       0.98229432        8 
H      -1.68006163      -0.87381580      -1.90907637        1 
H       0.53793654      -0.23019875      -1.81687974        1 
H       1.80719433       3.37371684       0.27145132        1 
H      -4.44092867       0.69042252       1.46420689        1 
H      -0.38760068      -3.98549960      -0.45620217        1 
H      -0.59296544      -3.02639701      -1.92414760        1 
H       1.73893793      -3.04979831      -0.04404331        1 
H       1.65947994      -2.17055183      -1.57241030        1 
H       2.65076637       3.38043012      -1.30911124        1 
H       0.92776387       3.85994465      -1.19484265        1 
H      -3.39347639       2.11814132       1.25894680        1 
H      -3.22066963       1.09135743       2.71548392        1 
H      -2.08656494      -2.39910039       0.36245191        1 
C       1.89039939      -0.58284818       1.04581001        6 
O       3.05566434      -0.42752979       0.25930817        8 
H       2.05955779      -1.30494955       1.85743196        1 
H       1.59238011       0.37041021       1.50526426        1 
C       4.10364988       0.22226973       0.95004879        6 
H       4.95251928       0.27744313       0.26849323        1 
H       4.39970606      -0.33527394       1.84978496        1 
H       3.81382571       1.24006489       1.24710478        1 
