36
Lattice="0.0 0.0 0.0 0.0 0.0 0.0 0.0 0.0 0.0" Properties=species:S:1:pos:R:3:Z:I:1 pbc="F F F"
C      -1.15954441      -0.97207404      -0.31889196        6 
C       0.09646439      -0.04770306      -0.56185962        6 
C      -2.45273390      -0.30123866       0.10564852        6 
C      -0.10557566       1.37919461      -0.04761507        6 
O      -3.14491731       0.10711837      -0.97568739        8 
O      -2.86963183      -0.24373660       1.23608601        8 
O       1.01269765       1.95949691       0.41460769        8 
O      -1.15276914       1.97510132      -0.13225066        8 
C       0.88198593       3.33066735       0.83859972        6 
C      -4.33626352       0.86592663      -0.70896416        6 
C      -0.60884355      -1.99495177       0.71282766        6 
C       0.10621989      -3.10113247      -0.07339331        6 
C       1.28442480      -2.28183484      -0.66676941        6 
C       1.18386381      -0.93779702       0.12871364        6 
O       0.49464013      -1.31138205       1.33235735        8 
H      -1.39082538      -1.47492173      -1.25946663        1 
H       0.29411298       0.06290000      -1.63030118        1 
H       0.14665381       3.41119400       1.63972132        1 
H      -4.07466912       1.78703087      -0.18605433        1 
H       0.46116261      -3.87648352       0.60793802        1 
H      -0.52810731      -3.56835336      -0.82916259        1 
H       2.24885543      -2.75524790      -0.48261326        1 
H       1.19907229      -2.12152959      -1.74233923        1 
H       1.87039904       3.61625237       1.19212264        1 
H       0.57531697       3.95934632       0.00169660        1 
H      -5.03618018       0.28624130      -0.10517171        1 
H      -4.76388593       1.08853621      -1.68432207        1 
H      -1.32261845      -2.29677593       1.47390979        1 
C       2.54435727      -0.36345437       0.47165058        6 
O       3.13610191       0.07478347      -0.74018547        8 
H       3.14788007      -1.16114874       0.92951015        1 
H       2.45457456       0.45631088       1.18620968        1 
C       4.35721688       0.75738236      -0.54123381        6 
H       4.73291806       1.04100462      -1.52476344        1 
H       5.10087149       0.11760361      -0.04512338        1 
H       4.21177143       1.66337465       0.06335462        1 
