36
Lattice="0.0 0.0 0.0 0.0 0.0 0.0 0.0 0.0 0.0" Properties=species:S:1:pos:R:3:Z:I:1 pbc="F F F"
C      -1.08158806      -0.72409105      -0.82569599        6 
C       0.32832434      -0.01324825      -0.73156430        6 
C      -2.19129864      -0.00475424      -0.06064870        6 
C       0.26939104       1.42784746      -0.25636945        6 
O      -2.78450968      -0.78247840       0.86047743        8 
O      -2.54226064       1.12850061      -0.28915189        8 
O      -0.04294102       2.22132451      -1.29740454        8 
O       0.52495509       1.84283355       0.84782695        8 
C      -0.29499525       3.60257980      -0.98780832        6 
C      -3.84386231      -0.16869684       1.61950580        6 
C      -0.71970477      -2.10949021      -0.24352117        6 
C       0.23394858      -2.85910617      -1.20090907        6 
C       1.58851849      -2.15807835      -0.89682196        6 
C       1.14103167      -1.06024011       0.09833353        6 
O       0.13002613      -1.74624227       0.85814217        8 
H      -1.41601994      -0.76870188      -1.86428316        1 
H       0.74045819       0.04831745      -1.73826247        1 
H       0.57423203       4.05431750      -0.50773584        1 
H      -4.65030394       0.15265750       0.95876489        1 
H       0.26621747      -3.92042283      -0.95121616        1 
H      -0.07431171      -2.77128124      -2.24533648        1 
H       2.28276634      -2.83519284      -0.39592465        1 
H       2.08689231      -1.75141684      -1.77667027        1 
H      -0.49896204       4.08074395      -1.94331385        1 
H      -1.16248133       3.67758889      -0.33085920        1 
H      -3.46235748       0.69232764       2.16930801        1 
H      -4.18947795      -0.93934952       2.30468744        1 
H      -1.56578235      -2.68167200       0.12223822        1 
C       2.22435107      -0.53907371       1.01656247        6 
O       3.14425424       0.17367723       0.20182979        8 
H       2.71845425      -1.38671908       1.51285654        1 
H       1.78911088       0.11475072       1.77618222        1 
C       4.05557317       0.95459744       0.95254790        6 
H       4.68940645       1.48256796       0.23943794        1 
H       4.68856178       0.32699096       1.59591434        1 
H       3.52397177       1.68415483       1.57634596        1 
