36
Lattice="0.0 0.0 0.0 0.0 0.0 0.0 0.0 0.0 0.0" Properties=species:S:1:pos:R:3:Z:I:1 pbc="F F F"
C      -1.01411390      -1.07022363      -0.61713549        6 
C       0.23703169      -0.11648588      -0.65500300        6 
C      -2.37118235      -0.62943315      -0.09488555        6 
C       0.05085656       1.29797169      -0.12890983        6 
O      -2.41180757       0.61046117       0.40326674        8 
O      -3.33627935      -1.35595656      -0.15842085        8 
O      -0.26159399       2.11865243      -1.15887158        8 
O       0.16011891       1.67862108       1.00832831        8 
C      -0.53171050       3.48515802      -0.80931462        6 
C      -3.67838077       1.05845736       0.92069650        6 
C      -0.46210588      -2.26917248       0.21859818        6 
C       0.48806787      -3.10465395      -0.65779242        6 
C       1.71457993      -2.15427616      -0.74459963        6 
C       1.26445636      -0.97483160       0.16129570        6 
O       0.42896273      -1.62604229       1.13510309        8 
H      -1.23566375      -1.40999248      -1.63090918        1 
H       0.56855542      -0.00894224      -1.68556616        1 
H       0.34287697       3.94283030      -0.34398659        1 
H      -4.02705661       0.38444247       1.70372530        1 
H       0.74071298      -4.03564345      -0.14800506        1 
H       0.05575303      -3.35612346      -1.62793210        1 
H       2.61085737      -2.61821948      -0.32977969        1 
H       1.94674957      -1.82841393      -1.75856428        1 
H      -0.77176965       3.98416669      -1.74582454        1 
H      -1.37443817       3.53976945      -0.11786879        1 
H      -4.42056338       1.10054776       0.12200656        1 
H      -3.48679360       2.04932956       1.32582237        1 
H      -1.22548472      -2.82167436       0.76036276        1 
C       2.38964000      -0.23694772       0.85602413        6 
O       3.06696512       0.51603883      -0.14062666        8 
H       3.06907978      -0.96497280       1.32127167        1 
H       1.98466406       0.41732588       1.63149377        1 
C       4.04824706       1.38199766       0.39897972        6 
H       4.50546436       1.91115573      -0.43760693        1 
H       4.82551202       0.82085801       0.93616834        1 
H       3.59715750       2.10957521       1.08688024        1 
