36
Lattice="0.0 0.0 0.0 0.0 0.0 0.0 0.0 0.0 0.0" Properties=species:S:1:pos:R:3:Z:I:1 pbc="F F F"
C      -1.04607731      -1.00958614      -0.80729991        6 
C       0.21296638      -0.09644777      -0.79831009        6 
C      -2.15436020      -0.68235788       0.19268751        6 
C      -0.02552075       1.39413740      -0.64571370        6 
O      -1.92823382       0.42564789       0.91722292        8 
O      -3.08684778      -1.42370911       0.39364677        8 
O      -1.12443942       1.73995610      -1.35886051        8 
O       0.72136150       2.20561763      -0.16033981        8 
C      -1.44913339       3.13844328      -1.38566623        6 
C      -2.86283681       0.69831636       1.97694865        6 
C      -0.40032506      -2.31114029      -0.24867851        6 
C       0.71836306      -2.83790697      -1.17579936        6 
C       1.90982498      -1.91381942      -0.78706678        6 
C       1.19703298      -0.89581202       0.13039194        6 
O       0.31916134      -1.76815532       0.87476169        8 
H      -1.49383642      -1.13002474      -1.79314411        1 
H       0.62995615      -0.13017095      -1.81141550        1 
H      -0.62324304       3.71941652      -1.79878018        1 
H      -2.87314719      -0.12562684       2.69170250        1 
H       0.93194197      -3.88531933      -0.96017169        1 
H       0.44220193      -2.76303399      -2.23016655        1 
H       2.66122221      -2.45679356      -0.21137972        1 
H       2.40507855      -1.44138465      -1.63483830        1 
H      -2.33015968       3.21980192      -2.01886714        1 
H      -1.67085923       3.49484881      -0.37790444        1 
H      -3.86599529       0.83886284       1.57204764        1 
H      -2.50515483       1.61128611       2.44764240        1 
H      -1.12306506      -3.04598731       0.09407386        1 
C       2.08909057      -0.13012904       1.08169551        6 
O       3.12408188       0.46105135       0.31615039        8 
H       2.50328011      -0.83525325       1.81710128        1 
H       1.51196144       0.63034017       1.61740468        1 
C       3.77745621       1.52096762       0.98926103        6 
H       4.54791735       1.89858948       0.31633337        1 
H       4.25348497       1.17399400       1.91770646        1 
H       3.07206578       2.32772016       1.22018325        1 
