36
Lattice="0.0 0.0 0.0 0.0 0.0 0.0 0.0 0.0 0.0" Properties=species:S:1:pos:R:3:Z:I:1 pbc="F F F"
C      -1.18028406      -0.99685347      -0.43887737        6 
C       0.06752563      -0.07250090      -0.58031977        6 
C      -2.50297459      -0.35505094      -0.06774844        6 
C      -0.04541638       1.23452621       0.18345889        6 
O      -2.74323953       0.71750971      -0.85099648        8 
O      -3.30936438      -0.82138420       0.69693324        8 
O       0.86149604       2.12882252      -0.26767166        8 
O      -0.82713602       1.47803438       1.06835286        8 
C       0.86757764       3.40500965       0.39617335        6 
C      -3.96882656       1.42455770      -0.59137384        6 
C      -0.67940772      -2.10714666       0.51946236        6 
C       0.09377225      -3.13971083      -0.31672222        6 
C       1.32228466      -2.28474956      -0.74467284        6 
C       1.13325867      -1.00248727       0.11838934        6 
O       0.38505233      -1.47016402       1.24803177        8 
H      -1.38470338      -1.43175073      -1.42339849        1 
H       0.33829836       0.14241016      -1.61154117        1 
H       1.09289768       3.28361979       1.45719659        1 
H      -3.95303096       1.83334992       0.42010211        1 
H       0.39576756      -3.97889246       0.31185838        1 
H      -0.48233391      -3.52892417      -1.15834651        1 
H       2.26600116      -2.76913164      -0.49187761        1 
H       1.34529285      -2.05648585      -1.81070404        1 
H       1.64454674       3.98443957      -0.09773991        1 
H      -0.10182493       3.89480646       0.29202040        1 
H      -4.82729595       0.76060901      -0.70251729        1 
H      -4.00439902       2.22481171      -1.32751527        1 
H      -1.43168026      -2.48224995       1.20693531        1 
C       2.42168509      -0.36110083       0.58791039        6 
O       3.15772473       0.01746308      -0.55944813        8 
H       2.98016602      -1.09098279       1.19168304        1 
H       2.21372619       0.50706603       1.22570545        1 
C       4.24938424       0.86583443      -0.26375872        6 
H       4.73791356       1.10260589      -1.20908872        1 
H       4.97417264       0.37568412       0.40147087        1 
H       3.90801558       1.79722222       0.20847743        1 
