36
Lattice="0.0 0.0 0.0 0.0 0.0 0.0 0.0 0.0 0.0" Properties=species:S:1:pos:R:3:Z:I:1 pbc="F F F"
C      -1.26647484      -0.89588068      -0.52862484        6 
C       0.06449221      -0.07187340      -0.65546256        6 
C      -2.43825419      -0.22181759       0.17290331        6 
C       0.00125780       1.36767205      -0.16804306        6 
O      -3.22891656       0.39419123      -0.73332911        8 
O      -2.67462808      -0.26859277       1.35169207        8 
O       1.15904394       2.00805910      -0.43534964        8 
O      -0.94832486       1.92002145       0.32835694        8 
C       1.21224286       3.39537839      -0.05629398        6 
C      -4.31376906       1.16530265      -0.18822964        6 
C      -0.78081570      -2.12459805       0.28520842        6 
C       0.02944467      -3.06189811      -0.62869360        6 
C       1.34519629      -2.24850389      -0.79310175        6 
C       1.06586914      -1.01956987       0.11495661        6 
O       0.22902843      -1.56507696       1.13867829        8 
H      -1.61277358      -1.18167934      -1.52245796        1 
H       0.37284153      -0.00433032      -1.69981985        1 
H       1.07932983       3.50237771       1.02150523        1 
H      -3.91862584       1.96202764       0.44371940        1 
H       0.21063133      -4.01299487      -0.12538967        1 
H      -0.47635176      -3.26945381      -1.57390587        1 
H       2.20818638      -2.79514236      -0.41154734        1 
H       1.56237414      -1.96164470      -1.82182613        1 
H       2.19954172       3.73837637      -0.35791089        1 
H       0.43476324       3.96215731      -0.57058676        1 
H      -4.97975208       0.53071183       0.39862810        1 
H      -4.83774159       1.57909632      -1.04746623        1 
H      -1.55110636      -2.58669408       0.89612746        1 
C       2.30334659      -0.42359794       0.75333159        6 
O       3.23386692      -0.12847924      -0.27072129        8 
H       2.71450360      -1.16645189       1.45195649        1 
H       2.05385468       0.47599135       1.32840241        1 
C       4.33615099       0.62514837       0.19042828        6 
H       4.98985371       0.79704112      -0.66499744        1 
H       4.89676259       0.08691893       0.96806790        1 
H       4.01225540       1.59325841       0.59679891        1 
