36
Lattice="0.0 0.0 0.0 0.0 0.0 0.0 0.0 0.0 0.0" Properties=species:S:1:pos:R:3:Z:I:1 pbc="F F F"
C      -1.02628715      -1.01288369      -0.80625260        6 
C       0.22574409      -0.09094560      -0.79580061        6 
C      -2.18011980      -0.64518943       0.11726156        6 
C      -0.02484984       1.39695261      -0.63182256        6 
O      -1.87338381       0.30677545       1.01351977        8 
O      -3.22809129      -1.24725798       0.11899284        8 
O      -1.18671249       1.72946349      -1.24339305        8 
O       0.75417106       2.21865268      -0.21904687        8 
C      -1.51596051       3.12752364      -1.26574416        6 
C      -2.87475451       0.59577879       2.00503123        6 
C      -0.39636282      -2.29306378      -0.17797786        6 
C       0.71024814      -2.87356529      -1.08820674        6 
C       1.90544614      -1.93020707      -0.76237482        6 
C       1.21384786      -0.88003185       0.13749743        6 
O       0.33695181      -1.71994707       0.91645909        8 
H      -1.43764790      -1.18428246      -1.79953537        1 
H       0.64931102      -0.11437882      -1.80643855        1 
H      -0.73856428       3.69859745      -1.77555852        1 
H      -3.08448446      -0.29374023       2.60081545        1 
H       0.92541950      -3.90700131      -0.81403693        1 
H       0.42371265      -2.85969138      -2.14224910        1 
H       2.67505861      -2.44861051      -0.18821686        1 
H       2.37653163      -1.48732445      -1.63932658        1 
H      -2.45813837       3.19467288      -1.80555589        1 
H      -1.63096437       3.50600688      -0.24840129        1 
H      -3.79555589       0.93563502       1.52857050        1 
H      -2.44828629       1.38085756       2.62528889        1 
H      -1.12670478      -3.00613526       0.19645736        1 
C       2.13108327      -0.10117195       1.05403286        6 
O       3.15771803       0.45964177       0.25521348        8 
H       2.55105563      -0.79307028       1.79863996        1 
H       1.57305056       0.67816066       1.58285608        1 
C       3.82995149       1.53365992       0.88636658        6 
H       4.59273391       1.88482013       0.19073973        1 
H       4.31735970       1.21031932       1.81734008        1 
H       3.13440652       2.35262872       1.10379883        1 
