36
Lattice="0.0 0.0 0.0 0.0 0.0 0.0 0.0 0.0 0.0" Properties=species:S:1:pos:R:3:Z:I:1 pbc="F F F"
C      -1.09747717      -1.12797976      -0.63802954        6 
C       0.20967919      -0.26030598      -0.79606025        6 
C      -2.39005374      -0.41101609      -0.30998171        6 
C      -0.08778798       1.23201507      -0.73300792        6 
O      -2.25573739       0.46075238       0.70752604        8 
O      -3.44056108      -0.64100705      -0.85821535        8 
O       0.46471307       1.88647633       0.29702128        8 
O      -0.78458533       1.76950281      -1.56193073        8 
C       0.14127519       3.28469789       0.39662001        6 
C      -3.43396170       1.20863249       1.05607141        6 
C      -0.67038813      -2.09570360       0.51516467        6 
C       0.24016774      -3.18496151      -0.07396086        6 
C       1.52074541      -2.35240862      -0.36539575        6 
C       1.14659805      -0.96187616       0.23482020        6 
O       0.23841425      -1.30969773       1.29373580        8 
H      -1.30692582      -1.68331312      -1.55005597        1 
H       0.59867339      -0.39768509      -1.80555887        1 
H      -0.93679297       3.41409851       0.50236030        1 
H      -4.24580975       0.53702269       1.33828257        1 
H       0.42941743      -3.95604481       0.67434028        1 
H      -0.18530740      -3.66213958      -0.95849468        1 
H       2.39005682      -2.76012327       0.15224153        1 
H       1.76617037      -2.28928247      -1.42557228        1 
H       0.65894921       3.63806736       1.28580812        1 
H       0.48380132       3.82166700      -0.48880739        1 
H      -3.74933504       1.82253007       0.21083738        1 
H      -3.14213124       1.83159599       1.89885193        1 
H      -1.48834160      -2.44251949       1.14321078        1 
C       2.32953012      -0.19637439       0.79080459        6 
O       3.08899264       0.25829628      -0.31898251        8 
H       2.92972492      -0.86957851       1.42008383        1 
H       1.98869984       0.64315382       1.40008825        1 
C       4.16421971       1.09559880       0.05865993        6 
H       4.66897977       1.40587531      -0.85650316        1 
H       4.88078959       0.56498761       0.70133724        1 
H       3.80342831       1.98540646       0.59257525        1 
