36
Lattice="0.0 0.0 0.0 0.0 0.0 0.0 0.0 0.0 0.0" Properties=species:S:1:pos:R:3:Z:I:1 pbc="F F F"
C      -1.00918992      -1.11919059      -0.51713398        6 
C       0.23190099      -0.18498585      -0.74852709        6 
C      -2.40936394      -0.59419993      -0.25413471        6 
C       0.03629546       1.30510757      -0.51074113        6 
O      -2.52165673       0.73909117      -0.20345588        8 
O      -3.35452957      -1.34414312      -0.16757575        8 
O      -0.04684720       1.62941214       0.79329210        8 
O      -0.00510449       2.11819682      -1.40185985        8 
C      -0.32017997       3.00897904       1.07867837        6 
C      -3.85417038       1.26285624      -0.04113633        6 
C      -0.49935979      -2.06341472       0.61998063        6 
C       0.40573085      -3.13587248      -0.00639477        6 
C       1.62867565      -2.26534375      -0.41548009        6 
C       1.26070062      -0.88566565       0.20793586        6 
O       0.43848690      -1.24703753       1.32926665        8 
H      -1.15486478      -1.71850569      -1.41927900        1 
H       0.55991477      -0.25094333      -1.78333554        1 
H      -1.26801418       3.30488315       0.62612445        1 
H      -4.27188147       0.94327456       0.91433181        1 
H       0.68046802      -3.87529621       0.74776594        1 
H      -0.06501736      -3.65710390      -0.84186762        1 
H       2.55498413      -2.64010102       0.02244503        1 
H       1.77637516      -2.19871038      -1.49353172        1 
H      -0.37602348       3.07574765       2.16316654        1 
H       0.47337900       3.65093847       0.69249528        1 
H      -4.49806358       0.91803313      -0.85093469        1 
H      -3.74329984       2.34409155      -0.07322400        1 
H      -1.27668910      -2.41843372       1.29154743        1 
C       2.44910547      -0.06674504       0.66859615        6 
O       3.12448993       0.37700207      -0.49660507        8 
H       3.10575147      -0.69577737       1.28718239        1 
H       2.11369325       0.78058454       1.27431884        1 
C       4.17671592       1.28105176      -0.21894849        6 
H       4.60360252       1.58097392      -1.17588382        1 
H       4.95930860       0.81209459       0.39383752        1 
H       3.80530514       2.17267760       0.30464110        1 
