36
Lattice="0.0 0.0 0.0 0.0 0.0 0.0 0.0 0.0 0.0" Properties=species:S:1:pos:R:3:Z:I:1 pbc="F F F"
C      -0.91045998      -0.95720830      -0.64520555        6 
C       0.35410978      -0.03318399      -0.74753084        6 
C      -2.25432916      -0.25331461      -0.65948255        6 
C       0.22299885       1.41533787      -0.30253338        6 
O      -2.97379707      -0.46320321       0.45799404        8 
O      -2.66598071       0.36160922      -1.61388684        8 
O      -0.91241048       1.66995341       0.36705180        8 
O       1.09730500       2.23627440      -0.45262743        8 
C      -1.08507828       3.01116219       0.85598776        6 
C      -4.26231195       0.17390956       0.50192128        6 
C      -0.55704162      -1.86648696       0.56838898        6 
C       0.32480342      -3.01265287       0.05090935        6 
C       1.59659883      -2.21719183      -0.35405787        6 
C       1.29936272      -0.80944726       0.24566324        6 
O       0.38965838      -1.08682447       1.32073346        8 
H      -0.94362241      -1.56194005      -1.55558591        1 
H       0.77580687      -0.01223093      -1.75071988        1 
H      -1.10092098       3.71733688       0.02474642        1 
H      -4.89748986      -0.18649775      -0.30869283        1 
H       0.53468432      -3.71385230       0.86031510        1 
H      -0.12786258      -3.56504509      -0.77515002        1 
H       2.50179924      -2.63299365       0.08924905        1 
H       1.75461458      -2.16877307      -1.43168411        1 
H      -2.04065981       3.00767781       1.37550395        1 
H      -0.27722860       3.27289928       1.54038151        1 
H      -4.15086487       1.25588153       0.41402812        1 
H      -4.68471796      -0.09154708       1.46857499        1 
H      -1.39560384      -2.13532377       1.20220908        1 
C       2.52853821      -0.09463553       0.76553480        6 
O       3.42000125       0.05024774      -0.32380835        8 
H       2.97725709      -0.70702188       1.56172144        1 
H       2.26679851       0.87893661       1.19180415        1 
C       4.42809000       1.01905903      -0.09778755        6 
H       5.05343948       1.04166485      -0.99048779        1 
H       5.05245396       0.75638662       0.76831866        1 
H       3.98746986       2.01092829       0.05996694        1 
