36
Lattice="0.0 0.0 0.0 0.0 0.0 0.0 0.0 0.0 0.0" Properties=species:S:1:pos:R:3:Z:I:1 pbc="F F F"
C      -0.86959109       0.98486864       0.64957615        6 
C       0.35984766       0.00280624       0.70508247        6 
C      -2.26527342       0.38798243       0.60773818        6 
C       0.17847677      -1.43795989       0.23973773        6 
O      -2.82825217       0.45512891      -0.61435290        8 
O      -2.84273073      -0.01993668       1.58646728        8 
O      -1.09307068      -1.76798540      -0.03036284        8 
O       1.09333142      -2.21766136       0.11367709        8 
C      -1.32910464      -3.11964494      -0.46455209        6 
C      -4.15487380      -0.08509108      -0.72428984        6 
C      -0.46996274       1.93105766      -0.52478874        6 
C       0.44421215       3.02071343       0.04929488        6 
C       1.67927232       2.16017097       0.43334648        6 
C       1.34272841       0.79127025      -0.23683958        6 
O       0.45057325       1.14857316      -1.30421734        8 
H      -0.87387551       1.54380336       1.58748506        1 
H       0.76703783      -0.06567395       1.71457894        1 
H      -0.97034661      -3.82693683       0.28386555        1 
H      -4.84234736       0.44688441      -0.06479629        1 
H       0.69057339       3.74845949      -0.72585357        1 
H      -0.00003436       3.55232131       0.89329870        1 
H       2.60502521       2.56301494       0.02194889        1 
H       1.81973786       2.05688336       1.50978947        1 
H      -2.40723129      -3.20010774      -0.58242390        1 
H      -0.82243666      -3.30533850      -1.41251579        1 
H      -4.15645841      -1.14394695      -0.46014210        1 
H      -4.43853079       0.05023084      -1.76580926        1 
H      -1.29404034       2.25578255      -1.15161655        1 
C       2.56258483       0.08063672      -0.78537266        6 
O       3.42152060      -0.17942561       0.31041398        8 
H       3.04957412       0.74588901      -1.51368466        1 
H       2.28352814      -0.84435328      -1.29493593        1 
C       4.39157037      -1.17418956       0.03667919        6 
H       4.98653843      -1.29669955       0.94227650        1 
H       5.05546210      -0.87417952      -0.78696989        1 
H       3.91118496      -2.12771487      -0.21329517        1 
