36
Lattice="0.0 0.0 0.0 0.0 0.0 0.0 0.0 0.0 0.0" Properties=species:S:1:pos:R:3:Z:I:1 pbc="F F F"
C      -1.20339194      -1.06805338      -0.67992869        6 
C       0.16949998      -0.32133411      -0.83944429        6 
C      -2.38783045      -0.38360625      -0.00788451        6 
C       0.05034708       1.19206883      -0.94375450        6 
O      -2.16924079       0.88116170       0.37255777        8 
O      -3.42214030      -0.97180181       0.20556561        8 
O       0.53929593       1.88365882       0.09715502        8 
O      -0.45345386       1.71565165      -1.90902663        8 
C       0.37274500       3.30904434       0.02667973        6 
C      -3.25595439       1.53862018       1.05141078        6 
C      -0.76925531      -2.23299512       0.25503993        6 
C       0.19324092      -3.19052192      -0.47625598        6 
C       1.51988083      -2.38131890      -0.42935644        6 
C       1.04832173      -1.06052792       0.23225178        6 
O       0.08155857      -1.54272080       1.18524450        8 
H      -1.57453941      -1.43494753      -1.63756049        1 
H       0.55285786      -0.58101561      -1.82741243        1 
H      -0.68520206       3.56044082      -0.06329840        1 
H      -3.51852621       0.99346990       1.95864093        1 
H       0.27833266      -4.13233051       0.06738005        1 
H      -0.14280338      -3.41710583      -1.49009468        1 
H       2.25402641      -2.86439240       0.21773845        1 
H       1.98031052      -2.22392843      -1.40434413        1 
H       0.78288540       3.69574764       0.95744770        1 
H       0.91102379       3.71733767      -0.82995411        1 
H      -4.12748678       1.59981950       0.39872245        1 
H      -2.88602492       2.53237716       1.29303852        1 
H      -1.59627932      -2.70012499       0.78230513        1 
C       2.13987955      -0.29616798       0.95001240        6 
O       3.03223467       0.18838815      -0.04112993        8 
H       2.65935079      -0.97859964       1.63795182        1 
H       1.71036739       0.52610018       1.52722109        1 
C       3.97853641       1.10658778       0.46827994        6 
H       4.61613396       1.40705777      -0.36359384        1 
H       4.60118387       0.65077465       1.25079135        1 
H       3.48336949       1.99536127       0.88287145        1 
