36
Lattice="0.0 0.0 0.0 0.0 0.0 0.0 0.0 0.0 0.0" Properties=species:S:1:pos:R:3:Z:I:1 pbc="F F F"
C      -1.21078102      -0.76858767      -0.83932007        6 
C       0.25682867      -0.20376580      -0.88332276        6 
C      -2.20974698       0.12992722      -0.10063898        6 
C       0.33526008       1.31223669      -0.98066544        6 
O      -3.00513612      -0.57131518       0.73230626        8 
O      -2.35571670       1.31010023      -0.29812176        8 
O       0.72414728       1.92573008       0.15113173        8 
O      -0.01889637       1.90220971      -1.96997277        8 
C       0.64699197       3.36344472       0.13260527        6 
C      -4.01623496       0.18548436       1.42301466        6 
C      -0.94241473      -2.07278337      -0.05281113        6 
C       0.00688018      -3.01405852      -0.83038544        6 
C       1.39514992      -2.38114616      -0.52687354        6 
C       0.96842948      -1.08666549       0.20322780        6 
O      -0.11823564      -1.56805618       1.01751771        8 
H      -1.60579932      -0.92019605      -1.84580912        1 
H       0.65956110      -0.50065598      -1.85336452        1 
H      -0.37727926       3.67522413      -0.07414287        1 
H      -4.67670990       0.68081837       0.70980765        1 
H      -0.06487493      -4.03216969      -0.44603274        1 
H      -0.22777416      -3.04266599      -1.89700722        1 
H       1.97356181      -3.00662967       0.15594531        1 
H       2.00140208      -2.18735049      -1.41130367        1 
H       0.95721353       3.68230072       1.12571371        1 
H       1.31336797       3.77202955      -0.62852076        1 
H      -3.55392282       0.93578355       2.06583750        1 
H      -4.56500186      -0.54165644       2.01725036        1 
H      -1.82871686      -2.53995333       0.36124208        1 
C       2.03234870      -0.45830369       1.07444438        6 
O       3.06749355      -0.01530129       0.21202272        8 
H       2.41022346      -1.21242875       1.78047879        1 
H       1.61287540       0.37663961       1.64170049        1 
C       4.02517984       0.79237754       0.86679854        6 
H       4.76288994       1.08721034       0.11999175        1 
H       4.53232761       0.24381639       1.67334142        1 
H       3.56000421       1.69297601       1.29002468        1 
