36
Lattice="0.0 0.0 0.0 0.0 0.0 0.0 0.0 0.0 0.0" Properties=species:S:1:pos:R:3:Z:I:1 pbc="F F F"
C      -0.97635507       1.03261918       0.80495503        6 
C       0.26139101       0.07777751       0.80070232        6 
C      -2.26651531       0.58565266       0.13808021        6 
C       0.05723018      -1.42007225       0.63389011        6 
O      -2.08582428       0.14583201      -1.11855462        8 
O      -3.35472304       0.72712790       0.64568563        8 
O      -1.23985015      -1.77824111       0.65446015        8 
O       0.95634790      -2.22636593       0.65266493        8 
C      -1.51875770      -3.18975856       0.64971863        6 
C      -3.26821154      -0.26880492      -1.81891287        6 
C      -0.38049306       2.22805588      -0.00625305        6 
C       0.70587085       2.94177903       0.82790480        6 
C       1.90757611       1.96610490       0.65835787        6 
C       1.25686645       0.82629734      -0.16393178        6 
O       0.37354645       1.55999421      -1.02494284        8 
H      -1.25484523       1.32426102       1.81586274        1 
H       0.70293720       0.11023519       1.80134023        1 
H      -1.03059092      -3.67807503       1.49417909        1 
H      -3.98846612       0.54833330      -1.88251503        1 
H       0.92410822       3.92373511       0.40606853        1 
H       0.40411329       3.08224618       1.86788249        1 
H       2.70902403       2.42042461       0.07432699        1 
H       2.33353446       1.61550418       1.59757979        1 
H      -2.60046997      -3.26834534       0.73157953        1 
H      -1.16809574      -3.64076363      -0.27984221        1 
H      -3.73388086      -1.11518710      -1.30951847        1 
H      -2.92993512      -0.55920747      -2.81134250        1 
H      -1.12417306       2.87566471      -0.46619272        1 
C       2.22193284       0.00119351      -0.99008197        6 
O       3.28893613      -0.38596780      -0.14492109        8 
H       2.58651520       0.62373448      -1.81992724        1 
H       1.71901710      -0.87392269      -1.41615696        1 
C       4.01960413      -1.49493531      -0.63518298        6 
H       4.81966966      -1.68957100       0.07946788        1 
H       4.46314644      -1.28134890      -1.61824007        1 
H       3.37834220      -2.38142135      -0.70849365        1 
