36
Lattice="0.0 0.0 0.0 0.0 0.0 0.0 0.0 0.0 0.0" Properties=species:S:1:pos:R:3:Z:I:1 pbc="F F F"
C      -0.86272424       1.08762178       0.76276374        6 
C       0.32544596       0.04303934       0.70123213        6 
C      -2.21687844       0.55958453       0.33350394        6 
C      -0.08461436      -1.30798834       0.13752612        6 
O      -2.29616144       0.40102954      -1.00005460        8 
O      -3.11524074       0.29199565       1.09486108        8 
O      -0.82656663      -1.95818865       1.06145181        8 
O       0.17931480      -1.77619973      -0.94061285        8 
C      -1.34908344      -3.24072174       0.67218263        6 
C      -3.52199081      -0.15543940      -1.50745013        6 
C      -0.28353764       2.23291015      -0.12210425        6 
C       0.73912464       3.01804052       0.71997677        6 
C       1.90503214       1.99132300       0.78350748        6 
C       1.37121439       0.84595542      -0.12595034        6 
O       0.54587738       1.54874648      -1.06758441        8 
H      -1.00523991       1.41685746       1.79109088        1 
H       0.68533237      -0.15272942       1.71043492        1 
H      -0.53487785      -3.94080011       0.47788281        1 
H      -4.36556057       0.49394989      -1.26809740        1 
H       1.03684696       3.92657941       0.19435879        1 
H       0.35209417       3.30310736       1.70020236        1 
H       2.82235427       2.40228125       0.35922024        1 
H       2.13125793       1.64527523       1.79236646        1 
H      -1.95198013      -3.57453613       1.51330392        1 
H      -1.96160806      -3.14621101      -0.22594276        1 
H      -3.69686958      -1.14248721      -1.07648343        1 
H      -3.38153644      -0.22665458      -2.58335321        1 
H      -1.02841137       2.82342896      -0.65018633        1 
C       2.44342392       0.05585290      -0.84867052        6 
O       3.09486115      -0.74285473       0.13010815        8 
H       3.15454416       0.75184808      -1.31614608        1 
H       1.99129970      -0.56771442      -1.62198551        1 
C       3.97767516      -1.69324470      -0.43677519        6 
H       4.41622638      -2.25709359       0.38711282        1 
H       4.78295731      -1.20521235      -1.00378462        1 
H       3.44025332      -2.38056305      -1.10311843        1 
