36
Lattice="0.0 0.0 0.0 0.0 0.0 0.0 0.0 0.0 0.0" Properties=species:S:1:pos:R:3:Z:I:1 pbc="F F F"
C      -1.18402528      -1.02988160      -0.51206185        6 
C       0.07651950      -0.10773282      -0.61749984        6 
C      -2.45829138      -0.38566102       0.00523584        6 
C      -0.05374816       1.22601559       0.09033086        6 
O      -2.82157360       0.63287626      -0.80482867        8 
O      -3.11295031      -0.76736345       0.94028083        8 
O       0.75677672       2.14565671      -0.47684580        8 
O      -0.75629841       1.46319946       1.04163584        8 
C       0.75354827       3.44602623       0.13820992        6 
C      -3.97415384       1.38598112      -0.38545584        6 
C      -0.66597311      -2.19328648       0.36877031        6 
C       0.16780894      -3.14205099      -0.51028174        6 
C       1.41885168      -2.25586955      -0.78341580        6 
C       1.13012299      -1.02213715       0.11546987        6 
O       0.34558178      -1.56883358       1.17911283        8 
H      -1.43529296      -1.38765705      -1.51479324        1 
H       0.37325420       0.07947873      -1.64685289        1 
H       1.08572842       3.37956648       1.17582774        1 
H      -3.78716710       1.83315651       0.59182302        1 
H       0.43386630      -4.03750451       0.05321919        1 
H      -0.35431352      -3.45142529      -1.41791065        1 
H       2.33874798      -2.74275424      -0.45716527        1 
H       1.54409706      -1.98033513      -1.83062005        1 
H       1.44538742       4.04601363      -0.44886006        1 
H      -0.24825278       3.87757251       0.11257447        1 
H      -4.85397267       0.74324949      -0.33008967        1 
H      -4.10951682       2.15574247      -1.14229766        1 
H      -1.42219278      -2.64142812       1.00625712        1 
C       2.35924874      -0.34123693       0.67906099        6 
O       3.15886843       0.07456149      -0.41241876        8 
H       2.90020115      -1.05635518       1.31511715        1 
H       2.07510225       0.51327071       1.30743111        1 
C       4.19585090       0.95856707      -0.03665750        6 
H       4.74325371       1.21600005      -0.94353773        1 
H       4.88677898       0.49150607       0.67919195        1 
H       3.78897820       1.87611338       0.41040971        1 
