36
Lattice="0.0 0.0 0.0 0.0 0.0 0.0 0.0 0.0 0.0" Properties=species:S:1:pos:R:3:Z:I:1 pbc="F F F"
C      -1.15336952      -0.63538863      -0.64236035        6 
C       0.29607292      -0.03385394      -0.66372988        6 
C      -2.26214045       0.25799518      -0.11261147        6 
C       0.44133002       1.34177183      -0.03109711        6 
O      -3.35169683      -0.47835044       0.19597279        8 
O      -2.23122839       1.45911065      -0.02366840        8 
O       0.54483144       2.28226910      -0.99121868        8 
O       0.47380560       1.58316042       1.14968149        8 
C       0.54492094       3.64308920      -0.52811911        6 
C      -4.49965692       0.25570930       0.66479977        6 
C      -0.93747984      -1.96285209       0.13681870        6 
C      -0.23487523      -2.97917784      -0.78475579        6 
C       1.19903485      -2.37786137      -0.84354609        6 
C       1.06662458      -1.15998741       0.11089436        6 
O       0.09246886      -1.61322422       1.06609524        8 
H      -1.46566673      -0.85702052      -1.66821766        1 
H       0.65677881       0.04914156      -1.68623452        1 
H       1.39444264       3.82552331       0.13206384        1 
H      -4.85424892       0.94172632      -0.10614634        1 
H      -0.23240811      -3.96514313      -0.31766193        1 
H      -0.71406051      -3.06766467      -1.76191953        1 
H       1.94004387      -3.07741873      -0.45370236        1 
H       1.51052288      -2.08396967      -1.84590382        1 
H       0.61852439       4.25505464      -1.42471420        1 
H      -0.38348778       3.85013778       0.00639744        1 
H      -4.24654384       0.82163232       1.56208759        1 
H      -5.25334202      -0.49717612       0.88431488        1 
H      -1.81385958      -2.32209884       0.66707002        1 
C       2.33343596      -0.75015328       0.83289702        6 
O       3.17638535      -0.12425021      -0.12251302        8 
H       2.81874503      -1.64124798       1.25653292        1 
H       2.08370311      -0.06319232       1.64670916        1 
C       4.34401674       0.43131477       0.45214398        6 
H       4.91078117       0.89483238      -0.35570738        1 
H       4.96409001      -0.34158854       0.92754708        1 
H       4.09259326       1.19337673       1.20187025        1 
