36
Lattice="0.0 0.0 0.0 0.0 0.0 0.0 0.0 0.0 0.0" Properties=species:S:1:pos:R:3:Z:I:1 pbc="F F F"
C      -1.15045061      -0.62518586      -0.65398909        6 
C       0.30504868      -0.03572390      -0.66556003        6 
C      -2.24649616       0.25734464      -0.07918463        6 
C       0.45398616       1.34875681      -0.05305535        6 
O      -3.33986166      -0.48133097       0.20996941        8 
O      -2.20552660       1.45366038       0.05686191        8 
O       0.47941749       2.27956062      -1.02814869        8 
O       0.55771518       1.60471202       1.12038604        8 
C       0.47141798       3.64593323      -0.58208159        6 
C      -4.47733982       0.24329927       0.71760328        6 
C      -0.93767013      -1.96944593       0.09641689        6 
C      -0.22287849      -2.96567540      -0.83806544        6 
C       1.21492545      -2.37236541      -0.85577592        6 
C       1.06655492      -1.16573680       0.10976424        6 
O       0.07963990      -1.63363479       1.04553084        8 
H      -1.47585854      -0.81769205      -1.68126900        1 
H       0.66784650       0.03873042      -1.68842098        1 
H       1.35501745       3.85948217       0.02170744        1 
H      -4.83679472       0.95699882      -0.02548942        1 
H      -0.23538927      -3.96399796      -0.39803095        1 
H      -0.68562305      -3.02529785      -1.82538255        1 
H       1.94179458      -3.08054962      -0.45496792        1 
H       1.55327011      -2.06905394      -1.84644951        1 
H       0.47361570       4.24729958      -1.48886733        1 
H      -0.42787587       3.83601619       0.00570824        1 
H      -4.20996481       0.77706471       1.63027402        1 
H      -5.23312181      -0.51209965       0.92061696        1 
H      -1.81865366      -2.34224570       0.60936413        1 
C       2.32474290      -0.76302526       0.85062231        6 
O       3.17893268      -0.13190677      -0.09172408        8 
H       2.80444343      -1.65814851       1.27217975        1 
H       2.06682951      -0.08078484       1.66515468        1 
C       4.32966909       0.43857848       0.50221091        6 
H       4.90878749       0.90059834      -0.29777698        1 
H       4.94695081      -0.32504713       0.99597300        1 
H       4.05626769       1.20432383       1.24028759        1 
