36
Lattice="0.0 0.0 0.0 0.0 0.0 0.0 0.0 0.0 0.0" Properties=species:S:1:pos:R:3:Z:I:1 pbc="F F F"
C      -0.99615823      -1.05377665      -0.69501868        6 
C       0.26457445      -0.11273646      -0.70651451        6 
C      -2.28249120      -0.65039476       0.01012541        6 
C       0.02796020       1.33715758      -0.31603201        6 
O      -2.23264448       0.53116697       0.63430977        8 
O      -3.25254076      -1.37213463       0.02260073        8 
O      -0.59061337       1.96305378      -1.34643817        8 
O       0.33915824       1.89817566       0.70232676        8 
C      -0.96811275       3.32922091      -1.11435637        6 
C      -3.40252608       0.92215410       1.37686910        6 
C      -0.41266710      -2.29739568       0.04168325        6 
C       0.60266767      -3.02095124      -0.86404474        6 
C       1.82719228      -2.06821973      -0.76133946        6 
C       1.27160801      -0.94733569       0.15549664        6 
O       0.41003182      -1.68547484       1.04378516        8 
H      -1.29832557      -1.31428687      -1.71034712        1 
H       0.62791027      -0.06083403      -1.73297128        1 
H      -0.08956153       3.94267475      -0.90881132        1 
H      -3.64164764       0.16927700       2.12858985        1 
H       0.82918707      -4.00898737      -0.46093515        1 
H       0.23319794      -3.14948033      -1.88331778        1 
H       2.67017886      -2.55755014      -0.27030431        1 
H       2.17319794      -1.68664457      -1.72180028        1 
H      -1.45718017       3.65620587      -2.02959176        1 
H      -1.65564758       3.39216944      -0.26887229        1 
H      -4.25330409       1.04648807       0.70528589        1 
H      -3.13838354       1.86552160       1.84904195        1 
H      -1.16770172      -2.92596497       0.50606888        1 
C       2.32280086      -0.20341593       0.95060077        6 
O       3.09389306       0.54083394       0.01825630        8 
H       2.95202319      -0.93302009       1.48059923        1 
H       1.84854171       0.45651398       1.67941306        1 
C       3.93754464       1.49319665       0.63899127        6 
H       4.47036339       2.01647860      -0.15563545        1 
H       4.66888575       1.00892756       1.30134193        1 
H       3.35057634       2.21521138       1.22067618        1 
