36
Lattice="0.0 0.0 0.0 0.0 0.0 0.0 0.0 0.0 0.0" Properties=species:S:1:pos:R:3:Z:I:1 pbc="F F F"
C      -0.99287846      -0.91805398      -0.58905419        6 
C       0.29442270      -0.04087198      -0.69632455        6 
C      -2.10314543      -0.38901287       0.30282244        6 
C       0.18701408       1.46020781      -0.47328644        6 
O      -3.29614124      -0.49372756      -0.33302178        8 
O      -1.98932035       0.00194577       1.43527189        8 
O      -1.09000793       1.88671364      -0.47589964        8 
O       1.12751435       2.21732547      -0.48027191        8 
C      -1.29256778       3.30710588      -0.37653287        6 
C      -4.44522370      -0.07498582       0.42331355        6 
C      -0.39270349      -2.17781633       0.11022618        6 
C       0.55959921      -2.91939108      -0.85360249        6 
C       1.83041645      -2.02425188      -0.77195256        6 
C       1.33265520      -0.87704856       0.14256358        6 
O       0.49529375      -1.58984835       1.06656969        8 
H      -1.41311334      -1.14694550      -1.56637252        1 
H       0.62464248      -0.06981214      -1.73946238        1 
H      -0.82974636       3.81831393      -1.22208823        1 
H      -4.34265193       0.96872426       0.72474709        1 
H       0.75598075      -3.92984008      -0.49264487        1 
H       0.14836777      -2.99656912      -1.86261093        1 
H       2.65200709      -2.54643493      -0.27923751        1 
H       2.18904727      -1.66755388      -1.73668249        1 
H      -2.37143539       3.44531060      -0.38578491        1 
H      -0.86638235       3.68457235       0.55364235        1 
H      -4.56496049      -0.69277684       1.31511345        1 
H      -5.29477984      -0.19960348      -0.24489134        1 
H      -1.12332281      -2.79941270       0.62388816        1 
C       2.42220295      -0.14053417       0.89278478        6 
O       3.40814825       0.24252950      -0.04866461        8 
H       2.84435485      -0.82280561       1.64445156        1 
H       2.01281213       0.73086136       1.41482063        1 
C       4.22823694       1.30544999       0.40023710        6 
H       4.94570117       1.51083483      -0.39474389        1 
H       4.77616637       1.03328669       1.31381564        1 
H       3.62986263       2.20474170       0.58720854        1 
