36
Lattice="0.0 0.0 0.0 0.0 0.0 0.0 0.0 0.0 0.0" Properties=species:S:1:pos:R:3:Z:I:1 pbc="F F F"
C      -1.12139306      -0.58936381      -0.71923467        6 
C       0.33713759      -0.01515301      -0.70299976        6 
C      -2.12967305       0.14318683       0.15675907        6 
C       0.46279918       1.43649085      -0.26274341        6 
O      -3.25936907      -0.58943189       0.27109265        8 
O      -2.00484881       1.23517588       0.64992235        8 
O      -0.09567534       2.22045163      -1.21340895        8 
O       1.03923052       1.87072977       0.70065375        8 
C      -0.17965049       3.61976885      -0.89677301        6 
C      -4.32393231       0.00261891       1.03992463        6 
C      -0.86189220      -2.01323730      -0.15502394        6 
C      -0.03410130      -2.84720692      -1.15539000        6 
C       1.39082312      -2.26797105      -0.92698804        6 
C       1.10117601      -1.13290566       0.08519288        6 
O       0.06825778      -1.72737407       0.89982638        8 
H      -1.54116155      -0.61887514      -1.72693416        1 
H       0.69891061       0.00088709      -1.73280819        1 
H       0.81299087       4.03353659      -0.71389786        1 
H      -4.64443296       0.94176434       0.58627120        1 
H      -0.08304510      -3.90630507      -0.89874085        1 
H      -0.38966208      -2.73433048      -2.18191146        1 
H       2.04792681      -3.00483112      -0.46212357        1 
H       1.87628317      -1.90730900      -1.83325894        1 
H      -0.63583261       4.08841007      -1.76646143        1 
H      -0.80406056       3.75878364      -0.01280906        1 
H      -3.99452803       0.19059758       2.06243794        1 
H      -5.13142598      -0.72600749       1.02379244        1 
H      -1.74357814      -2.49964964       0.25061675        1 
C       2.27724889      -0.73519732       0.95009885        6 
O       3.26130687      -0.18874821       0.08499818        8 
H       2.66317756      -1.62946941       1.46103825        1 
H       1.96510246      -0.00319071       1.69762961        1 
C       4.24300687       0.56621021       0.77251500        6 
H       4.94607432       0.93394797       0.02421376        1 
H       4.78912992      -0.05148004       1.49973102        1 
H       3.78692940       1.41704630       1.29323289        1 
