36
Lattice="0.0 0.0 0.0 0.0 0.0 0.0 0.0 0.0 0.0" Properties=species:S:1:pos:R:3:Z:I:1 pbc="F F F"
C      -1.13909306      -0.55080956      -0.77728905        6 
C       0.33293950      -0.00928375      -0.72586402        6 
C      -2.12255155       0.17477638       0.13988082        6 
C       0.48102681       1.44416770      -0.30203653        6 
O      -3.15278362      -0.62969800       0.47258508        8 
O      -2.06444412       1.33215714       0.47227341        8 
O      -0.01485597       2.22810503      -1.28515942        8 
O       1.04095618       1.87560510       0.67314963        8 
C      -0.07534209       3.63389698      -0.99451844        6 
C      -4.18247451      -0.03775175       1.28755219        6 
C      -0.90262017      -2.00118127      -0.28635716        6 
C      -0.03261688      -2.78582036      -1.29256234        6 
C       1.38810253      -2.25557970      -0.95175962        6 
C       1.05574249      -1.14751258       0.07397090        6 
O      -0.01517408      -1.76308801       0.82063899        8 
H      -1.55563012      -0.50270566      -1.78630626        1 
H       0.71407214      -0.00778802      -1.74897706        1 
H       0.91739305       4.02333641      -0.76476260        1 
H      -4.65396978       0.79395015       0.76140306        1 
H      -0.11609942      -3.85880202      -1.11534904        1 
H      -0.32838536      -2.59386055      -2.32675679        1 
H       1.99101686      -3.02473334      -0.46577839        1 
H       1.94468367      -1.88207101      -1.81067372        1 
H      -0.47110476       4.10026833      -1.89444190        1 
H      -0.74313934       3.80409685      -0.14861258        1 
H      -3.76240792       0.32169575       2.22758448        1 
H      -4.90071169      -0.83450649       1.46735888        1 
H      -1.79599503      -2.50821477       0.06160851        1 
C       2.18776767      -0.77395576       1.00487825        6 
O       3.22714129      -0.23782336       0.20048205        8 
H       2.52929471      -1.67792251       1.52999930        1 
H       1.84696215      -0.04183696       1.74019374        1 
C       4.17889922       0.49879728       0.94748397        6 
H       4.92678317       0.86285949       0.24207898        1 
H       4.67537609      -0.13216953       1.69839970        1 
H       3.70525564       1.35148007       1.44900098        1 
