36
Lattice="0.0 0.0 0.0 0.0 0.0 0.0 0.0 0.0 0.0" Properties=species:S:1:pos:R:3:Z:I:1 pbc="F F F"
C      -1.22828025      -0.56175971      -0.48665812        6 
C       0.19490084       0.05531437      -0.58270029        6 
C      -2.40118330       0.36878110      -0.26179704        6 
C       0.39719709       1.36478753       0.16801876        6 
O      -3.54216936      -0.36220186      -0.21245176        8 
O      -2.37921065       1.56594307      -0.14495895        8 
O       1.06053697       2.24871799      -0.61278218        8 
O       0.05778757       1.60135135       1.29746479        8 
C       1.30942189       3.53406257      -0.01768602        6 
C      -4.75784701       0.37745311       0.00845188        6 
C      -1.02598171      -1.74623751       0.51580229        6 
C      -0.48767065      -2.94100437      -0.29050820        6 
C       0.91473095      -2.39071677      -0.68778458        6 
C       0.99482182      -1.08432071       0.15562364        6 
O       0.12906133      -1.35946094       1.26579083        8 
H      -1.45846539      -1.00183340      -1.46280740        1 
H       0.52476298       0.18177723      -1.61048687        1 
H       1.93629210       3.43120593       0.87009963        1 
H      -4.91588055       1.10061669      -0.79306841        1 
H      -0.40215992      -3.81675456       0.35512610        1 
H      -1.11500660      -3.20365056      -1.14460648        1 
H       1.71620087      -3.07333650      -0.40260200        1 
H       1.01629209      -2.19183216      -1.75522522        1 
H       1.82194222       4.11366700      -0.78255624        1 
H       0.36836033       4.00935579       0.26269511        1 
H      -4.71461309       0.90324437       0.96340638        1 
H      -5.55191018      -0.36609317       0.01563727        1 
H      -1.86144491      -1.93662745       1.18326979        1 
C       2.37873942      -0.73015274       0.65660788        6 
O       3.19096531      -0.48352928      -0.47730411        8 
H       2.77184320      -1.57085640       1.24655286        1 
H       2.33446835       0.14859314       1.31268963        1 
C       4.48390171      -0.01827275      -0.14255558        6 
H       5.02111095       0.13886082      -1.07795888        1 
H       5.02987469      -0.75158112       0.46741237        1 
H       4.43464337       0.93145123       0.40755224        1 
