36
Lattice="0.0 0.0 0.0 0.0 0.0 0.0 0.0 0.0 0.0" Properties=species:S:1:pos:R:3:Z:I:1 pbc="F F F"
C      -0.97046362      -0.90103565      -0.57650158        6 
C       0.32272913      -0.02671954      -0.67683491        6 
C      -2.06788662      -0.31480878       0.28936710        6 
C       0.15282951       1.44768237      -0.34219219        6 
O      -3.27674608      -0.50914414      -0.28680330        8 
O      -1.92420886       0.18550387       1.37645205        8 
O      -1.04616361       1.88205042      -0.79513950        8 
O       0.99136655       2.18969624       0.10138233        8 
C      -1.34901818       3.26963731      -0.56851606        6 
C      -4.41098762      -0.05256925       0.47189859        6 
C      -0.39562131      -2.16298052       0.13605289        6 
C       0.51578842      -2.93667063      -0.84046250        6 
C       1.79422083      -2.05005496      -0.82015545        6 
C       1.35641145      -0.89653980       0.12019466        6 
O       0.52718450      -1.59205435       1.06806513        8 
H      -1.38836178      -1.13694647      -1.55300016        1 
H       0.63413743       0.00673948      -1.72529438        1 
H      -0.58020588       3.90711119      -1.00653537        1 
H      -4.35205637       1.02572470       0.62926067        1 
H       0.71599388      -3.93920386      -0.45979129        1 
H       0.07070203      -3.03481586      -1.83281541        1 
H       2.63723218      -2.57800610      -0.37184412        1 
H       2.10503589      -1.69448753      -1.80212365        1 
H      -2.30976092       3.43849424      -1.05025305        1 
H      -1.41812813       3.46539765       0.50268890        1 
H      -4.45150793      -0.55274282       1.44074053        1 
H      -5.28295157      -0.30472917      -0.12772246        1 
H      -1.13436897      -2.75842518       0.66903434        1 
C       2.49218648      -0.20458153       0.84111736        6 
O       3.37021954       0.30499297      -0.14911975        8 
H       3.00549168      -0.94510901       1.47150610        1 
H       2.10839121       0.59585029       1.47814927        1 
C       4.24254622       1.30476429       0.34588550        6 
H       4.87124011       1.62072771      -0.48731925        1 
H       4.88478821       0.91533854       1.14868865        1 
H       3.67468033       2.16474254       0.71946731        1 
