36
Lattice="0.0 0.0 0.0 0.0 0.0 0.0 0.0 0.0 0.0" Properties=species:S:1:pos:R:3:Z:I:1 pbc="F F F"
C      -0.90626758       1.08915844       0.72644151        6 
C       0.30357207       0.08055510       0.70583686        6 
C      -2.25764232       0.62926609       0.22151205        6 
C      -0.04504953      -1.31167550       0.20603993        6 
O      -2.17198434      -0.08497935      -0.91136515        8 
O      -3.30319464       0.92679514       0.75044184        8 
O      -0.77960512      -1.93952893       1.15708187        8 
O       0.23920558      -1.82286454      -0.84526578        8 
C      -1.25719963      -3.25320203       0.81836974        6 
C      -3.40869637      -0.54714879      -1.48224292        6 
C      -0.33153168       2.24677019      -0.15839343        6 
C       0.67612268       3.05124448       0.68281353        6 
C       1.86104601       2.04729932       0.74773042        6 
C       1.34000413       0.88095954      -0.14066144        6 
O       0.50405328       1.56211874      -1.09353050        8 
H      -1.09322465       1.44024182       1.73975928        1 
H       0.66445311      -0.05702612       1.72466890        1 
H      -0.42054933      -3.93187252       0.64534897        1 
H      -4.03590423       0.29840830      -1.76835244        1 
H       0.95580952       3.96409224       0.15464491        1 
H       0.28159217       3.33142479       1.66114475        1 
H       2.76669217       2.46990058       0.31009668        1 
H       2.10168945       1.71767435       1.75854892        1 
H      -1.84351510      -3.57929380       1.67462626        1 
H      -1.87634459      -3.21217626      -0.07936972        1 
H      -3.94968768      -1.16772018      -0.76583915        1 
H      -3.12067756      -1.12662631      -2.35623956        1 
H      -1.08295010       2.82855621      -0.68849267        1 
C       2.42046961       0.09628011      -0.85594844        6 
O       3.09284355      -0.67140497       0.13326889        8 
H       3.11613997       0.79534972      -1.34183540        1 
H       1.97410133      -0.54994102      -1.61370322        1 
C       3.97437160      -1.62974452      -0.42230593        6 
H       4.42926087      -2.16901932       0.40920906        1 
H       4.76761996      -1.15058110      -1.01332404        1 
H       3.43156516      -2.33754865      -1.06214287        1 
