36
Lattice="0.0 0.0 0.0 0.0 0.0 0.0 0.0 0.0 0.0" Properties=species:S:1:pos:R:3:Z:I:1 pbc="F F F"
C      -0.93651525       1.20864500       0.49585098        6 
C       0.22110439       0.17726531       0.75167974        6 
C      -2.26767589       0.63790135       0.04417161        6 
C      -0.07821808      -1.26697912       0.40062383        6 
O      -2.68539094      -0.31308181       0.90742504        8 
O      -2.91353168       1.01284571      -0.90078509        8 
O      -0.61307290      -1.39064415      -0.83194693        8 
O       0.16338770      -2.20682343       1.11725719        8 
C      -0.93804101      -2.72476090      -1.25530514        6 
C      -3.92928887      -0.96125071       0.58669815        6 
C      -0.29127338       2.16550122      -0.53467880        6 
C       0.69300873       3.09715323       0.19770866        6 
C       1.84192772       2.10230507       0.53551046        6 
C       1.34171778       0.80528156      -0.15511043        6 
O       0.59401859       1.30366786      -1.26993797        8 
H      -1.15465709       1.73201697       1.43146728        1 
H       0.52866388       0.16366733       1.79408266        1 
H      -1.65313312      -3.17947715      -0.56743601        1 
H      -3.87302058      -1.41563930      -0.40393618        1 
H       1.03509513       3.88398995      -0.47627682        1 
H       0.25452480       3.57074594       1.07859653        1 
H       2.78999385       2.41499444       0.09554485        1 
H       2.00150167       1.96252019       1.60457490        1 
H      -1.37158673      -2.61523107      -2.24680898        1 
H      -0.04023719      -3.34401784      -1.29395101        1 
H      -4.75118471      -0.24387764       0.60546890        1 
H      -4.06520439      -1.72170892       1.35230530        1 
H      -0.99858717       2.63023735      -1.21521350        1 
C       2.42894797      -0.13360862      -0.63345716        6 
O       3.16801479      -0.53977495       0.50284724        8 
H       3.06911561       0.39447148      -1.35495311        1 
H       1.99076696      -0.99891629      -1.14833329        1 
C       4.08650869      -1.58037619       0.22762770        6 
H       4.59690292      -1.81276992       1.16212668        1 
H       4.82921099      -1.27278729      -0.52200124        1 
H       3.56866369      -2.48005376      -0.13130040        1 
