36
Lattice="0.0 0.0 0.0 0.0 0.0 0.0 0.0 0.0 0.0" Properties=species:S:1:pos:R:3:Z:I:1 pbc="F F F"
C      -1.09625627      -1.11710073      -0.57428774        6 
C       0.12516716      -0.13259333      -0.66166743        6 
C      -2.35887069      -0.57401077       0.07200199        6 
C      -0.09605732       1.21621688      -0.00916920        6 
O      -2.75365404       0.56101742      -0.54341832        8 
O      -2.98595654      -1.11397404       0.94665950        8 
O       0.22699170       2.21613354      -0.85339692        8 
O      -0.48687574       1.39864340       1.11875054        8 
C       0.09104653       3.54748244      -0.32874226        6 
C      -3.90585194       1.21580493       0.01865719        6 
C      -0.49209777      -2.31320017       0.19361383        6 
C       0.44319488      -3.10454880      -0.74203464        6 
C       1.65324560      -2.13180456      -0.84572120        6 
C       1.20843237      -0.98696651       0.10221005        6 
O       0.43074513      -1.67378128       1.08819604        8 
H      -1.39114187      -1.40525646      -1.58760573        1 
H       0.42580645       0.03897583      -1.69156679        1 
H       0.74327990       3.68626303       0.53520243        1 
H      -3.68987812       1.53171478       1.04031792        1 
H       0.73050317      -4.04678535      -0.27340672        1 
H      -0.01608444      -3.33335859      -1.70615438        1 
H       2.56894584      -2.58858467      -0.46624772        1 
H       1.85131162      -1.77897564      -1.85771388        1 
H       0.38481771       4.21042559      -1.13957491        1 
H      -0.94149409       3.73688140      -0.03098740        1 
H      -4.76656920       0.54596879       0.01802553        1 
H      -4.08926782       2.07780941      -0.61921572        1 
H      -1.21774329      -2.88607420       0.76342127        1 
C       2.32553430      -0.22702741       0.78414541        6 
O       3.03614273       0.48029453      -0.21791223        8 
H       2.98141044      -0.94240639       1.30034507        1 
H       1.90969668       0.45668067       1.53389621        1 
C       4.07209745       1.28884321       0.30513796        6 
H       4.55944602       1.77410108      -0.54076502        1 
H       4.81252795       0.68810474       0.85136852        1 
H       3.67586564       2.05848119       0.98233498        1 
