36
Lattice="0.0 0.0 0.0 0.0 0.0 0.0 0.0 0.0 0.0" Properties=species:S:1:pos:R:3:Z:I:1 pbc="F F F"
C      -1.06490691      -0.85473112      -0.63155453        6 
C       0.27759536      -0.07135843      -0.75935947        6 
C      -2.16103280      -0.30378863       0.26758462        6 
C       0.32484934       1.44631403      -0.65273641        6 
O      -3.36346627      -0.46054555      -0.34854546        8 
O      -2.04531256       0.13994601       1.37798511        8 
O      -0.81402634       2.00544758      -0.22013037        8 
O       1.27136453       2.09375516      -1.03584845        8 
C      -0.84865066       3.44277710      -0.17710535        6 
C      -4.51310859      -0.06491222       0.41969777        6 
C      -0.52925477      -2.14125534       0.07897468        6 
C       0.43396986      -2.91911938      -0.84847698        6 
C       1.74882827      -2.10146004      -0.68437302        6 
C       1.24430711      -0.91463916       0.16764954        6 
O       0.34032418      -1.57668659       1.06470220        8 
H      -1.49769939      -1.07054134      -1.60662357        1 
H       0.62768189      -0.21460138      -1.78387491        1 
H      -0.71133227       3.85713524      -1.17714645        1 
H      -4.46631982       0.99969293       0.65498871        1 
H       0.55233648      -3.94617542      -0.50081732        1 
H       0.07353939      -2.95474050      -1.87915507        1 
H       2.49644944      -2.66038717      -0.11922832        1 
H       2.19933415      -1.78423717      -1.62365213        1 
H      -1.83154368       3.69311156       0.21537909        1 
H      -0.06588102       3.82240207       0.48066026        1 
H      -4.56669375      -0.63244367       1.35030778        1 
H      -5.37326532      -0.27991157      -0.21092369        1 
H      -1.29719235      -2.73888152       0.56617055        1 
C       2.30118266      -0.17073848       0.95721063        6 
O       3.37824165       0.11120678       0.08421526        8 
H       2.62783039      -0.80838509       1.79081555        1 
H       1.88376764       0.75036355       1.38395218        1 
C       4.19972641       1.17523093       0.52619856        6 
H       4.99568910       1.28882742      -0.20990054        1 
H       4.64657806       0.95947493       1.50716027        1 
H       3.62978001       2.11068492       0.58335606        1 
