36
Lattice="0.0 0.0 0.0 0.0 0.0 0.0 0.0 0.0 0.0" Properties=species:S:1:pos:R:3:Z:I:1 pbc="F F F"
C      -1.40842515      -0.82100086      -0.79115771        6 
C       0.02425204      -0.22371650      -0.86849705        6 
C      -2.44130161      -0.09663156       0.06296558        6 
C       0.05103463       1.29121951      -0.97924822        6 
O      -1.92783505       0.85132130       0.86089660        8 
O      -3.59724956      -0.44829788       0.10509426        8 
O       1.19310176       1.84343237      -0.53530803        8 
O      -0.84139411       1.92922283      -1.48309775        8 
C       1.30809527       3.26898289      -0.70310320        6 
C      -2.85123319       1.48560771       1.76219840        6 
C      -1.08673443      -2.13255001      -0.01895892        6 
C      -0.13216030      -3.04112626      -0.82735204        6 
C       1.24631113      -2.37383377      -0.54701636        6 
C       0.80200221      -1.09435828       0.19943654        6 
O      -0.25128701      -1.61931433       1.03212796        8 
H      -1.85749591      -1.00002138      -1.76679987        1 
H       0.42890883      -0.50857544      -1.84671615        1 
H       0.51524317       3.78261660      -0.15744727        1 
H      -3.26186630       0.75347434       2.45922802        1 
H      -0.16886064      -4.06467093      -0.45243417        1 
H      -0.39116067      -3.06450138      -1.88817067        1 
H       1.85521359      -2.98686734       0.11967261        1 
H       1.83091197      -2.16105788      -1.44153998        1 
H       2.28437815       3.52862078      -0.29953933        1 
H       1.24648077       3.53575083      -1.75908780        1 
H      -3.66446168       1.95216678       1.20504927        1 
H      -2.26933288       2.23606400       2.29272672        1 
H      -1.96047919      -2.62050862       0.40539866        1 
C       1.85876161      -0.46206792       1.07775543        6 
O       3.02954498      -0.28794137       0.29976670        8 
H       2.05319867      -1.14169354       1.92032855        1 
H       1.50877256       0.49450270       1.47963695        1 
C       3.99900515       0.51657280       0.93693998        6 
H       4.85244709       0.58922155       0.26220369        1 
H       4.33162599       0.07442968       1.88724946        1 
H       3.60860684       1.52421056       1.13546101        1 
