36
Lattice="0.0 0.0 0.0 0.0 0.0 0.0 0.0 0.0 0.0" Properties=species:S:1:pos:R:3:Z:I:1 pbc="F F F"
C      -1.14868464      -1.05014373      -0.50079772        6 
C       0.08952281      -0.10194297      -0.60591946        6 
C      -2.45658902      -0.44176438      -0.03121128        6 
C      -0.06994424       1.21146384       0.13317147        6 
O      -2.70987341       0.70589082      -0.69465791        8 
O      -3.23776301      -0.96730642       0.72064223        8 
O       0.54797662       2.21124035      -0.53076030        8 
O      -0.63237196       1.36518550       1.18943230        8 
C       0.50544356       3.50203647       0.10192787        6 
C      -3.92321739       1.39031133      -0.33261864        6 
C      -0.61156388      -2.20578343       0.38032332        6 
C       0.23216012      -3.13979465      -0.50614566        6 
C       1.46315161      -2.22864898      -0.79127794        6 
C       1.16189815      -1.00301153       0.11481984        6 
O       0.39612075      -1.56851262       1.18312039        8 
H      -1.38288550      -1.42199328      -1.50402841        1 
H       0.37502945       0.10809120      -1.63338444        1 
H       0.99966685       3.46832296       1.07448169        1 
H      -3.89171302       1.67004593       0.72126919        1 
H       0.52117753      -4.02852492       0.05657540        1 
H      -0.29167670      -3.46109040      -1.40853680        1 
H       2.39576752      -2.69957301      -0.47748162        1 
H       1.57046811      -1.94811710      -1.83924991        1 
H       1.03249032       4.17315593      -0.57266059        1 
H      -0.52734673       3.82643844       0.23866878        1 
H      -4.79113816       0.75492940      -0.51520889        1 
H      -3.95605901       2.27543419      -0.96417620        1 
H      -1.35928892      -2.66682740       1.01882630        1 
C       2.38135811      -0.30058078       0.67279109        6 
O       3.13855568       0.18232107      -0.42185501        8 
H       2.96304326      -1.01818207       1.26934180        1 
H       2.08351714       0.52032771       1.33906851        1 
C       4.21351382       1.01138139      -0.02668365        6 
H       4.72072871       1.33600249      -0.93528112        1 
H       4.92741916       0.47029731       0.61011375        1 
H       3.85269178       1.89416858       0.51926716        1 
