36
Lattice="0.0 0.0 0.0 0.0 0.0 0.0 0.0 0.0 0.0" Properties=species:S:1:pos:R:3:Z:I:1 pbc="F F F"
C      -0.97396113       1.28994724       0.54406736        6 
C       0.24073709       0.31714816       0.82000356        6 
C      -2.17669065       0.68821869      -0.17254616        6 
C      -0.09515756      -1.15905949       0.76116975        6 
O      -2.73109818      -0.29386673       0.56397383        8 
O      -2.61742370       1.05525480      -1.23241038        8 
O      -0.11969810      -1.63767718      -0.50161986        8 
O      -0.40595702      -1.81426337       1.72345753        8 
C      -0.51917709      -3.01135831      -0.64448072        6 
C      -3.86413788      -0.96631922      -0.01348436        6 
C      -0.28680150       2.34508926      -0.35130103        6 
C       0.73295250       3.15987428       0.47339002        6 
C       1.91580658       2.15476112       0.57272084        6 
C       1.32134919       0.91777644      -0.14713753        6 
O       0.54307774       1.52481039      -1.18853952        8 
H      -1.33952257       1.70023768       1.48797138        1 
H       0.56269922       0.45712925       1.85065599        1 
H      -1.50832011      -3.16658389      -0.21138952        1 
H      -3.60022174      -1.38774384      -0.98470950        1 
H       1.01985658       4.06450495      -0.06377687        1 
H       0.33606029       3.45793316       1.44636788        1 
H       2.78555694       2.50989097       0.01738393        1 
H       2.23032725       1.93681294       1.59340454        1 
H      -0.53298539      -3.19968662      -1.71586791        1 
H       0.19463971      -3.66992072      -0.14665849        1 
H      -4.69757536      -0.27334308      -0.13892654        1 
H      -4.12139956      -1.75281446       0.69246382        1 
H      -0.97543879       2.91279560      -0.96992747        1 
C       2.32765382      -0.04071502      -0.75044944        6 
O       2.88717331      -0.79488121       0.31343828        8 
H       3.10692742       0.52973856      -1.27537463        1 
H       1.82728043      -0.69558040      -1.46990785        1 
C       3.75754701      -1.81728895      -0.13195509        6 
H       4.11466857      -2.34416003       0.75292369        1 
H       4.61795937      -1.40364165      -0.67611961        1 
H       3.23368012      -2.52578968      -0.78858515        1 
