36
Lattice="0.0 0.0 0.0 0.0 0.0 0.0 0.0 0.0 0.0" Properties=species:S:1:pos:R:3:Z:I:1 pbc="F F F"
C      -1.40549104      -0.40007100      -0.88122970        6 
C       0.11047354      -0.03768438      -0.87406269        6 
C      -2.24025316       0.40228353       0.13341059        6 
C       0.43084255       1.44790173      -0.94711746        6 
O      -3.25301376      -0.35074018       0.62471465        8 
O      -2.12384943       1.57064707       0.39441012        8 
O       1.56810631       1.78497455      -0.31097994        8 
O      -0.24934304       2.23493877      -1.55372353        8 
C       1.94265398       3.17242954      -0.40379605        6 
C      -4.14060865       0.31391459       1.54031731        6 
C      -1.28486767      -1.84762433      -0.33942467        6 
C      -0.37825105      -2.74573997      -1.21340986        6 
C       1.04424053      -2.33725726      -0.72931239        6 
C       0.69917212      -1.10423951       0.13374301        6 
O      -0.47316645      -1.58280547       0.82678569        8 
H      -1.86344453      -0.29917159      -1.86615123        1 
H       0.47852080      -0.34091546      -1.86274209        1 
H       1.15875441       3.80536927       0.01404015        1 
H      -4.64495693       1.14727235       1.04810504        1 
H      -0.58323544      -3.79905407      -1.01930081        1 
H      -0.53538971      -2.56957261      -2.28026548        1 
H       1.48657518      -3.11040105      -0.09874453        1 
H       1.74338160      -2.10788183      -1.53306130        1 
H       2.86161846       3.26308833       0.17150010        1 
H       2.11364800       3.45200955      -1.44443747        1 
H      -3.58588020       0.68843117       2.40162354        1 
H      -4.85943907      -0.44286925       1.84747534        1 
H      -2.22464222      -2.29205947      -0.03394787        1 
C       1.74543811      -0.70648183       1.15267541        6 
O       2.99813965      -0.63564231       0.49564355        8 
H       1.76379599      -1.47801443       1.93645952        1 
H       1.49095350       0.25303080       1.61491136        1 
C       3.99624779      -0.01476840       1.27779174        6 
H       4.90580474       0.01201523       0.67700656        1 
H       4.19426701      -0.57618879       2.20236689        1 
H       3.70878420       1.01143369       1.54368915        1 
