36
Lattice="0.0 0.0 0.0 0.0 0.0 0.0 0.0 0.0 0.0" Properties=species:S:1:pos:R:3:Z:I:1 pbc="F F F"
C      -1.03621855      -1.11434610      -0.76916545        6 
C       0.30162447      -0.28368444      -0.90145188        6 
C      -2.27961082      -0.32566745      -0.38664023        6 
C       0.14769345       1.22571645      -0.90572228        6 
O      -2.41212762      -0.14571992       0.93524039        8 
O      -3.10951610       0.02650991      -1.19361917        8 
O      -0.30119843       1.71079747       0.27033841        8 
O       0.38545047       1.92204479      -1.86126030        8 
C      -0.51740371       3.13237660       0.32401813        6 
C      -3.55939029       0.60856841       1.35734051        6 
C      -0.60814953      -2.15141805       0.30428916        6 
C       0.41085219      -3.13823303      -0.31093366        6 
C       1.70530593      -2.27227843      -0.31554753        6 
C       1.16790750      -0.92999357       0.24044571        6 
O       0.19512083      -1.36879922       1.19506745        8 
H      -1.27642895      -1.57808835      -1.72487340        1 
H       0.75392437      -0.49736637      -1.86706675        1 
H      -1.24965525       3.43308598      -0.42682243        1 
H      -4.48222974       0.12027859       1.04010032        1 
H       0.51954517      -4.01802173       0.32485368        1 
H       0.11381130      -3.47710787      -1.30573098        1 
H       2.45374932      -2.67306743       0.37049494        1 
H       2.16586330      -2.16851471      -1.29752178        1 
H      -0.88972897       3.32961017       1.32707481        1 
H       0.41617953       3.66917752       0.14732553        1 
H      -3.52563817       1.61495277       0.93605013        1 
H      -3.49581363       0.64633876       2.44246883        1 
H      -1.43033372      -2.60049857       0.85548279        1 
C       2.18118190      -0.03977672       0.92619287        6 
O       3.05866842       0.45256495      -0.07053485        8 
H       2.72919818      -0.62518366       1.67855474        1 
H       1.66459102       0.78046289       1.43832512        1 
C       4.00573096       1.37700788       0.42928030        6 
H       4.62382231       1.68971188      -0.41200456        1 
H       4.64431015       0.91959314       1.19769694        1 
H       3.51233368       2.25945960       0.86008960        1 
