36
Lattice="0.0 0.0 0.0 0.0 0.0 0.0 0.0 0.0 0.0" Properties=species:S:1:pos:R:3:Z:I:1 pbc="F F F"
C      -1.18325750      -0.81201708      -0.61245070        6 
C       0.16582952      -0.01419573      -0.68539264        6 
C      -2.46041520       0.01045768      -0.59358864        6 
C       0.06888278       1.40085974      -0.11531535        6 
O      -3.06688697       0.00522669       0.60637372        8 
O      -2.90571200       0.55305479      -1.57507036        8 
O       1.28442845       1.96723287       0.02071202        8 
O      -0.95251127       2.01436616       0.06935864        8 
C       1.29449221       3.34781867       0.42981527        6 
C      -4.23515571       0.83792138       0.71757324        6 
C      -0.91147701      -1.81338665       0.54906855        6 
C      -0.21825727      -3.03604555      -0.06782153        6 
C       1.10659303      -2.37512975      -0.53839461        6 
C       1.05098141      -0.98595947       0.17520811        6 
O       0.16858079      -1.21258601       1.28804507        8 
H      -1.26984307      -1.37037508      -1.54748672        1 
H       0.54001111       0.08096091      -1.70542918        1 
H       0.85920045       3.45491129       1.42460573        1 
H      -4.99960312       0.52445082       0.00487357        1 
H      -0.03670942      -3.79043459       0.69952251        1 
H      -0.79124699      -3.49331400      -0.87692549        1 
H       1.98393887      -2.93229975      -0.20992804        1 
H       1.17392891      -2.26812381      -1.62173164        1 
H       2.34294336       3.63787212       0.43663972        1 
H       0.73023969       3.95751566      -0.27687851        1 
H      -3.96533413       1.87761386       0.52791708        1 
H      -4.58582450       0.71066469       1.73953676        1 
H      -1.75098703      -1.99378047       1.21270987        1 
C       2.40631200      -0.53734842       0.68298339        6 
O       3.23882327      -0.33775386      -0.44490445        8 
H       2.80891934      -1.33503564       1.32512741        1 
H       2.32608496       0.37411926       1.28071491        1 
C       4.49385355       0.21972684      -0.11225083        6 
H       5.05576374       0.32637602      -1.04041648        1 
H       5.05497999      -0.43071905       0.57391077        1 
H       4.37776611       1.20782067       0.35379042        1 
