36
Lattice="0.0 0.0 0.0 0.0 0.0 0.0 0.0 0.0 0.0" Properties=species:S:1:pos:R:3:Z:I:1 pbc="F F F"
C      -1.25037984      -0.75292604      -0.83750362        6 
C       0.21032890      -0.16785277      -0.87130916        6 
C      -2.26231620       0.10949999      -0.06969411        6 
C       0.28162465       1.34745321      -0.99562169        6 
O      -2.96767754      -0.60826833       0.82910436        8 
O      -2.48799359       1.27248592      -0.29006178        8 
O       0.86733191       1.97088565       0.04336138        8 
O      -0.22028126       1.93201666      -1.92120608        8 
C       0.85972448       3.41026243      -0.01474391        6 
C      -3.97972677       0.11225377       1.55485169        6 
C      -0.95584899      -2.07041396      -0.08450403        6 
C       0.01495115      -2.97317489      -0.88157458        6 
C       1.39071080      -2.32889006      -0.54918754        6 
C       0.93715001      -1.05663927       0.20401528        6 
O      -0.14464095      -1.57433666       1.00083018        8 
H      -1.64658916      -0.88310551      -1.84609052        1 
H       0.61291181      -0.46636905      -1.84274603        1 
H      -0.16490297       3.77570107      -0.08911264        1 
H      -4.73300054       0.50713385       0.87104322        1 
H      -0.04432782      -4.00374181      -0.52979228        1 
H      -0.21184610      -2.97235387      -1.95037108        1 
H       1.97042976      -2.96061604       0.12673211        1 
H       2.00494286      -2.10718498      -1.42142353        1 
H       1.32359945       3.73894811       0.91301583        1 
H       1.43281556       3.75898944      -0.87513939        1 
H      -3.53345185       0.93733623       2.11151362        1 
H      -4.41903315      -0.61479268       2.23420342        1 
H      -1.83216032      -2.56705575       0.31628019        1 
C       1.98624322      -0.43999379       1.10092312        6 
O       3.07150067      -0.05314371       0.27422304        8 
H       2.30774530      -1.19295657       1.83575300        1 
H       1.57612051       0.42060142       1.63587270        1 
C       4.02425442       0.74208197       0.95005215        6 
H       4.80379360       0.99313080       0.23015659        1 
H       4.47765111       0.20093296       1.79299612        1 
H       3.57032080       1.66823230       1.32780446        1 
