36
Lattice="0.0 0.0 0.0 0.0 0.0 0.0 0.0 0.0 0.0" Properties=species:S:1:pos:R:3:Z:I:1 pbc="F F F"
C      -0.98558096       1.20290847       0.51741666        6 
C       0.22834749       0.23331198       0.79173832        6 
C      -2.20816478       0.57883725      -0.13369825        6 
C       0.01015626      -1.25369702       0.59545134        6 
O      -2.97485049      -0.01594753       0.81247442        8 
O      -2.46730804       0.55885279      -1.30749890        8 
O      -0.56896971      -1.54021185      -0.58494333        8 
O       0.35483888      -2.09615914       1.38828148        8 
C      -0.79762239      -2.93013125      -0.87038994        6 
C      -4.12005224      -0.74013674       0.32865339        6 
C      -0.32067364       2.22980940      -0.43433235        6 
C       0.66701687       3.10944973       0.36122132        6 
C       1.86356306       2.13120975       0.54276499        6 
C       1.32120503       0.86099907      -0.15776935        6 
O       0.54524766       1.40482809      -1.22732275        8 
H      -1.30763126       1.65291079       1.45720164        1 
H       0.54626691       0.32332090       1.82803264        1 
H      -1.41556741      -3.38395955      -0.09384839        1 
H      -3.80563499      -1.53418764      -0.35094237        1 
H       0.95200718       3.98532326      -0.22287845        1 
H       0.24597382       3.45617619       1.30730528        1 
H       2.75094777       2.48439589       0.01496048        1 
H       2.13921180       1.95231700       1.58148916        1 
H      -1.30801383      -2.94495477      -1.83066576        1 
H       0.15022102      -3.46823311      -0.92992457        1 
H      -4.80347303      -0.07084610      -0.19612302        1 
H      -4.59598902      -1.15800964       1.21308126        1 
H      -1.01684455       2.74949306      -1.08697674        1 
C       2.36759140      -0.08242385      -0.71030239        6 
O       3.16292121      -0.52257784       0.37421832        8 
H       2.97436110       0.45111950      -1.45614885        1 
H       1.88385305      -0.92791617      -1.21690312        1 
C       4.03402775      -1.58329868       0.03281250        6 
H       4.59915542      -1.83504760       0.93001237        1 
H       4.73324129      -1.29000798      -0.76302878        1 
H       3.47102323      -2.46750658      -0.29537718        1 
