36
Lattice="0.0 0.0 0.0 0.0 0.0 0.0 0.0 0.0 0.0" Properties=species:S:1:pos:R:3:Z:I:1 pbc="F F F"
C      -0.99317051      -0.97120451      -0.57109596        6 
C       0.28136395      -0.07227446      -0.71369399        6 
C      -2.14877597      -0.44500654       0.26661399        6 
C       0.18879180       1.43430540      -0.52055652        6 
O      -3.28061761      -0.41144682      -0.48090533        8 
O      -2.11838619      -0.15023067       1.43216529        8 
O      -1.04736119       1.86457439      -0.22332634        8 
O       1.11024902       2.18560353      -0.73620318        8 
C      -1.22287790       3.28684448      -0.09704374        6 
C      -4.46264211       0.04620467       0.19732120        6 
C      -0.37249295      -2.18317532       0.19044272        6 
C       0.59294951      -2.95877102      -0.73162091        6 
C       1.84763393      -2.03856572      -0.70128303        6 
C       1.33338114      -0.85945245       0.16096351        6 
O       0.50513232      -1.53483343       1.11749041        8 
H      -1.38446965      -1.25279162      -1.54706986        1 
H       0.61391818      -0.13480684      -1.75288192        1 
H      -0.99971876       3.78333246      -1.04258416        1 
H      -4.32357811       1.06763265       0.55579113        1 
H       0.80801092      -3.94316320      -0.31362089        1 
H       0.18438569      -3.10199891      -1.73440239        1 
H       2.68263496      -2.52238560      -0.19219347        1 
H       2.19265673      -1.71910788      -1.68371887        1 
H      -2.26697891       3.42364462       0.17491726        1 
H      -0.56971384       3.68111211       0.68203189        1 
H      -4.69466540      -0.59969643       1.04577938        1 
H      -5.25825454       0.00584467      -0.54377123        1 
H      -1.09389102      -2.78775833       0.73582694        1 
C       2.41114555      -0.07233874       0.87723390        6 
O       3.40808207       0.26132705      -0.07053719        8 
H       2.82601460      -0.70457477       1.67511787        1 
H       1.99194825       0.82658636       1.34397540        1 
C       4.21824142       1.35141215       0.32725813        6 
H       4.94979200       1.50933926      -0.46558043        1 
H       4.74971225       1.13787384       1.26582703        1 
H       3.61638658       2.26011448       0.44702706        1 
