36
Lattice="0.0 0.0 0.0 0.0 0.0 0.0 0.0 0.0 0.0" Properties=species:S:1:pos:R:3:Z:I:1 pbc="F F F"
C      -1.04768208      -0.83886553      -0.84649080        6 
C       0.31588605      -0.03724356      -0.75006966        6 
C      -2.21075402      -0.12434317      -0.16936467        6 
C       0.13889543       1.37963422      -0.23887979        6 
O      -2.63766142      -0.73817642       0.94391732        8 
O      -2.70921932       0.88796980      -0.60413361        8 
O      -0.08325879       2.20800607      -1.27397084        8 
O       0.20588695       1.74502526       0.91065804        8 
C      -0.42748411       3.56398676      -0.93758839        6 
C      -3.69768760      -0.08030122       1.66343907        6 
C      -0.62710445      -2.17131326      -0.18468353        6 
C       0.35661986      -2.92425995      -1.10781671        6 
C       1.67214514      -2.13049351      -0.86372797        6 
C       1.18096736      -1.02191799       0.10104670        6 
O       0.20972433      -1.72459459       0.89323371        8 
H      -1.33784496      -0.95399937      -1.89178641        1 
H       0.73491285       0.05956170      -1.74983441        1 
H       0.35636488       4.02001073      -0.33148025        1 
H      -4.58626017       0.01112360       1.03714013        1 
H       0.45211621      -3.96421809      -0.79282900        1 
H       0.03473226      -2.91902619      -2.15177650        1 
H       2.41959152      -2.74455868      -0.35821790        1 
H       2.12200481      -1.72878157      -1.77177345        1 
H      -0.52942910       4.08080023      -1.88910488        1 
H      -1.37208108       3.57853220      -0.39220817        1 
H      -3.37398007       0.91143904       1.98155954        1 
H      -3.89566558      -0.71352461       2.52516324        1 
H      -1.44880482      -2.75981367       0.21187074        1 
C       2.24026194      -0.41354152       0.99341231        6 
O       3.09391371       0.35577872       0.15826673        8 
H       2.80217540      -1.21682082       1.49100608        1 
H       1.76860275       0.21466478       1.75357645        1 
C       4.00573054       1.15297260       0.89065005        6 
H       4.59842777       1.71186295       0.16600993        1 
H       4.67805482       0.53506106       1.50236914        1 
H       3.47466614       1.85566390       1.54577479        1 
