36
Lattice="0.0 0.0 0.0 0.0 0.0 0.0 0.0 0.0 0.0" Properties=species:S:1:pos:R:3:Z:I:1 pbc="F F F"
C      -0.96147444       1.04968338       0.78049630        6 
C       0.26307969       0.08022519       0.76783736        6 
C      -2.20701906       0.63141649       0.02165291        6 
C      -0.05034708      -1.38517853       0.52117719        6 
O      -1.93872217      -0.13630696      -1.05002493        8 
O      -3.31304651       1.03583761       0.29238411        8 
O      -1.21055223      -1.71156435       1.13897838        8 
O       0.67264089      -2.20657581       0.01665464        8 
C      -1.61154512      -3.08916829       1.05384709        6 
C      -3.06234728      -0.50632393      -1.86670496        6 
C      -0.34163251       2.26852562       0.02732016        6 
C       0.73583861       2.93787809       0.90751850        6 
C       1.92399414       1.94713021       0.73239654        6 
C       1.27840990       0.84621738      -0.14735833        6 
O       0.42187682       1.62636317      -1.00135522        8 
H      -1.28602854       1.31237071       1.78526479        1 
H       0.67704491       0.05047207       1.78085790        1 
H      -0.85171831      -3.73887124       1.49044883        1 
H      -3.54687806       0.38235455      -2.27349147        1 
H       0.97876866       3.92906092       0.52231305        1 
H       0.41213423       3.04962088       1.94438925        1 
H       2.74817272       2.40913431       0.18665554        1 
H       2.31867886       1.55647949       1.66991064        1 
H      -2.54205911      -3.15482871       1.61343455        1 
H      -1.77063973      -3.37259902       0.01178269        1 
H      -3.78748024      -1.07433761      -1.28118491        1 
H      -2.64913684      -1.11728653      -2.66618160        1 
H      -1.07302070       2.93932046      -0.41879692        1 
C       2.25605654       0.04783696      -0.98180498        6 
O       3.19311904      -0.53019490      -0.08924453        8 
H       2.75677330       0.73087134      -1.68340192        1 
H       1.73388047      -0.72209106      -1.55655872        1 
C       3.92611189      -1.59506856      -0.66669329        6 
H       4.61288543      -1.96088985       0.09727430        1 
H       4.50750798      -1.25641586      -1.53620658        1 
H       3.25630252      -2.40770830      -0.97201293        1 
