36
Lattice="0.0 0.0 0.0 0.0 0.0 0.0 0.0 0.0 0.0" Properties=species:S:1:pos:R:3:Z:I:1 pbc="F F F"
C      -1.08030816      -0.65907330      -0.41970618        6 
C       0.29198315       0.01417083      -0.68620048        6 
C      -2.34635476       0.17028331      -0.46339558        6 
C       0.49636742       1.46307774      -0.26550851        6 
O      -3.41073632      -0.67164540      -0.40425258        8 
O      -2.46132301       1.36642584      -0.52608726        8 
O      -0.15229964       1.78608085       0.85860121        8 
O       1.28672041       2.19660917      -0.81618532        8 
C      -0.00283856       3.13884153       1.31533138        6 
C      -4.71005478      -0.05225292      -0.40864179        6 
C      -0.80100888      -1.52746851       0.85934616        6 
C      -0.23946535      -2.86942570       0.36312491        6 
C       1.10389175      -2.37819184      -0.25603750        6 
C       1.17210073      -0.90374885       0.24897209        6 
O       0.36502321      -0.93065589       1.43630196        8 
H      -1.24085033      -1.36677756      -1.23882061        1 
H       0.60241002      -0.05860452      -1.72576778        1 
H      -0.39157609       3.83175934       0.56743515        1 
H      -4.86207867       0.51044851      -1.33111594        1 
H      -0.06563129      -3.53741098       1.20857807        1 
H      -0.89444441      -3.37404749      -0.34936995        1 
H       1.95786618      -2.94219752       0.11968348        1 
H       1.12754135      -2.43451943      -1.34479010        1 
H      -0.58674882       3.20006703       2.23090523        1 
H       1.04630012       3.36668987       1.51094769        1 
H      -4.81548373       0.62132212       0.44323568        1 
H      -5.42194804      -0.87190568      -0.33914997        1 
H      -1.60538048      -1.56356811       1.58899479        1 
C       2.56755683      -0.41006464       0.56605079        6 
O       3.31461322      -0.47603843      -0.63361120        8 
H       3.00926424      -1.05055290       1.34346337        1 
H       2.53663894       0.61538186       0.95338572        1 
C       4.50749605       0.28731112      -0.59439608        6 
H       4.99838145       0.16067122      -1.55937850        1 
H       5.18282444      -0.06199973       0.19950977        1 
H       4.28585177       1.35073667      -0.43998435        1 
