36
Lattice="0.0 0.0 0.0 0.0 0.0 0.0 0.0 0.0 0.0" Properties=species:S:1:pos:R:3:Z:I:1 pbc="F F F"
C      -0.84643020       1.05952198       0.37335206        6 
C       0.25902111      -0.04477245       0.56493895        6 
C      -2.26781595       0.64787446       0.04910804        6 
C       0.00626680      -1.42075577      -0.05314288        6 
O      -2.88166374       0.18238406       1.15922386        8 
O      -2.82968935       0.81276457      -1.00474686        8 
O      -1.30004296      -1.68516048      -0.22880745        8 
O       0.86867085      -2.21469982      -0.34062882        8 
C      -1.62367715      -2.95203101      -0.83048969        6 
C      -4.23380711      -0.26967475       0.98602712        6 
C      -0.18899045       1.99653121      -0.68073146        6 
C       0.68971840       2.99450608       0.08478650        6 
C       1.74933504       2.01641457       0.66380100        6 
C       1.45234796       0.70217208      -0.12827546        6 
O       0.79785787       1.16882032      -1.32129697        8 
H      -0.93058079       1.58731088       1.32627354        1 
H       0.46164072      -0.22323215       1.62271834        1 
H      -1.27950227      -3.77119768      -0.19772943        1 
H      -4.26661129      -1.10187862       0.28045611        1 
H       1.13962373       3.70722363      -0.60819590        1 
H       0.14356397       3.55163627       0.84918984        1 
H       2.76802438       2.35075707       0.46721765        1 
H       1.65737566       1.86724915       1.74050986        1 
H      -2.70762021      -2.96038752      -0.91839881        1 
H      -1.15984402      -3.03268991      -1.81399497        1 
H      -4.86679442       0.53794773       0.61516805        1 
H      -4.56266280      -0.59332516       1.97129011        1 
H      -0.87458580       2.39196002      -1.42449286        1 
C       2.70536581      -0.06974873      -0.48699320        6 
O       3.27442705      -0.53428289       0.72562669        8 
H       3.39585721       0.61456242      -1.00215750        1 
H       2.47509826      -0.89987184      -1.15588980        1 
C       4.27903588      -1.51061301       0.52105723        6 
H       4.64906408      -1.80117617       1.50481498        1 
H       5.11429527      -1.10885419      -0.07037344        1 
H       3.86955851      -2.39197338       0.01195884        1 
