36
Lattice="0.0 0.0 0.0 0.0 0.0 0.0 0.0 0.0 0.0" Properties=species:S:1:pos:R:3:Z:I:1 pbc="F F F"
C      -1.12132116      -0.89096825      -0.81795499        6 
C       0.31037539      -0.23048292      -0.88943891        6 
C      -2.20884476       0.00867536      -0.22799790        6 
C       0.30058726       1.28752066      -0.93135929        6 
O      -2.89617882      -0.59144311       0.76231094        8 
O      -2.47876403       1.10963239      -0.63980952        8 
O       0.37053551       1.86191103       0.28617705        8 
O       0.13758184       1.90776166      -1.95090768        8 
C       0.16765814       3.28715330       0.30945145        6 
C      -3.96125141       0.17945365       1.34852186        6 
C      -0.79879114      -2.11201595       0.07109994        6 
C       0.16446194      -3.07866222      -0.65571676        6 
C       1.52963207      -2.35929387      -0.46154375        6 
C       1.07477451      -1.04350815       0.21434012        6 
O       0.02839501      -1.51094069       1.08326284        8 
H      -1.46438481      -1.15895953      -1.81960530        1 
H       0.73352956      -0.48847421      -1.85957066        1 
H      -0.82206077       3.52357721      -0.08299393        1 
H      -4.70012265       0.44799320       0.59215744        1 
H       0.15441748      -4.05865343      -0.17721249        1 
H      -0.10473351      -3.21710910      -1.70553123        1 
H       2.17365501      -2.91343334       0.22373601        1 
H       2.08015815      -2.18980926      -1.38674153        1 
H       0.25015411       3.57435028       1.35574072        1 
H       0.92673441       3.79174595      -0.28985718        1 
H      -3.56362351       1.08854660       1.80189882        1 
H      -4.40029884      -0.46559405       2.10623050        1 
H      -1.66344296      -2.57273760       0.53603242        1 
C       2.13441319      -0.32168923       1.01841841        6 
O       3.05664341       0.23002974       0.09213835        8 
H       2.63490341      -1.03633606       1.68730330        1 
H       1.67194711       0.46362590       1.62215629        1 
C       3.99695428       1.09699066       0.69636287        6 
H       4.65206793       1.46255545      -0.09461093        1 
H       4.60101115       0.57255645       1.44990484        1 
H       3.49754772       1.95045846       1.17519684        1 
