36
Lattice="0.0 0.0 0.0 0.0 0.0 0.0 0.0 0.0 0.0" Properties=species:S:1:pos:R:3:Z:I:1 pbc="F F F"
C      -1.00293704      -1.03936113      -0.74853710        6 
C       0.25799968      -0.10625960      -0.74906107        6 
C      -2.22100723      -0.66217850       0.08609536        6 
C      -0.00332024       1.36121514      -0.45302647        6 
O      -2.10198147       0.49813164       0.74378725        8 
O      -3.17876685      -1.39184333       0.19042259        8 
O      -0.80975706       1.85166345      -1.42621638        8 
O       0.45603702       2.04308496       0.42597769        8 
C      -1.21522903       3.22130648      -1.27815091        6 
C      -3.17731179       0.85109211       1.63402363        6 
C      -0.39541772      -2.30748092      -0.08257146        6 
C       0.66782846      -2.95077948      -0.99730201        6 
C       1.87974856      -2.00316206      -0.76821498        6 
C       1.25143695      -0.92319826       0.14655309        6 
O       0.37808445      -1.71758208       0.97450839        8 
H      -1.36753507      -1.24104541      -1.75625338        1 
H       0.64622896      -0.08830200      -1.76979820        1 
H      -0.34619169       3.87907963      -1.23516867        1 
H      -3.29808273       0.08409366       2.39982456        1 
H       0.88464270      -3.96844129      -0.67012748        1 
H       0.34142397      -2.99562939      -2.03867823        1 
H       2.68229332      -2.51061250      -0.23003544        1 
H       2.29801789      -1.58533278      -1.68369466        1 
H      -1.82100024       3.44290592      -2.15433621        1 
H      -1.80406313       3.34274630      -0.36672655        1 
H      -4.11019193       0.95852265       1.07877292        1 
H      -2.87910449       1.79663672       2.08085577        1 
H      -1.14006105      -2.98234487       0.33051176        1 
C       2.23933419      -0.17036438       1.01020841        6 
O       3.10751047       0.53005805       0.13198829        8 
H       2.80246222      -0.89458984       1.61699839        1 
H       1.71481554       0.52027336       1.67417067        1 
C       3.86152474       1.53369876       0.78694465        6 
H       4.50071017       1.99614201       0.03408571        1 
H       4.49348235       1.10708302       1.57859300        1 
H       3.20249166       2.29479804       1.22213226        1 
