36
Lattice="0.0 0.0 0.0 0.0 0.0 0.0 0.0 0.0 0.0" Properties=species:S:1:pos:R:3:Z:I:1 pbc="F F F"
C      -0.90817285       1.08053631       0.75570176        6 
C       0.29114250       0.06816908       0.73785143        6 
C      -2.21362599       0.63410140       0.12991627        6 
C      -0.07491526      -1.36569002       0.39210377        6 
O      -2.03130834      -0.00023286      -1.04367096        8 
O      -3.30066613       0.87896191       0.59578101        8 
O      -1.18504224      -1.72031806       1.08165309        8 
O       0.55528251      -2.14616192      -0.27443305        8 
C      -1.64197194      -3.07188801       0.90263558        6 
C      -3.21964227      -0.44376029      -1.72046055        6 
C      -0.29313969       2.25303559      -0.07383712        6 
C       0.76104297       2.98189036       0.78156707        6 
C       1.93192188       1.95782654       0.73899281        6 
C       1.33199852       0.82944057      -0.14476756        6 
O       0.49701642       1.56996017      -1.05225873        8 
H      -1.15810063       1.39635997       1.76642625        1 
H       0.68251369      -0.01800002       1.75507913        1 
H      -0.89405512      -3.77942843       1.26405712        1 
H      -3.86066012       0.40455823      -1.96440147        1 
H       1.03900413       3.92543205       0.30965512        1 
H       0.40571837       3.19970820       1.79053852        1 
H       2.81119272       2.37766148       0.24837994        1 
H       2.23801063       1.59714154       1.72075597        1 
H      -2.55625121      -3.14740451       1.48706745        1 
H      -1.84092060      -3.26900585      -0.15203533        1 
H      -3.77549866      -1.14286802      -1.09291494        1 
H      -2.86987411      -0.93370883      -2.62631723        1 
H      -1.02462999       2.88933035      -0.56816522        1 
C       2.35825624       0.03108088      -0.92010108        6 
O       3.19468499      -0.60601925       0.03199929        8 
H       2.93999977       0.72259986      -1.54734950        1 
H       1.86698949      -0.70216013      -1.56325334        1 
C       3.96545586      -1.65644161      -0.52274899        6 
H       4.56754701      -2.07239399       0.28577745        1 
H       4.63597424      -1.28922685      -1.31285812        1 
H       3.31767498      -2.44001276      -0.93417844        1 
