36
Lattice="0.0 0.0 0.0 0.0 0.0 0.0 0.0 0.0 0.0" Properties=species:S:1:pos:R:3:Z:I:1 pbc="F F F"
C      -1.10513658      -1.01450669      -0.47367314        6 
C       0.13154467      -0.06680128      -0.56741320        6 
C      -2.51009268      -0.50668108      -0.21365425        6 
C       0.03301725       1.26141278       0.16530046        6 
O      -2.61223276       0.82616192      -0.12640852        8 
O      -3.46636872      -1.24751753      -0.23103004        8 
O       0.36350199       2.27468169      -0.66929976        8 
O      -0.26806499       1.42795231       1.31921266        8 
C       0.31691911       3.59225570      -0.09841909        6 
C      -3.94124004       1.35752144       0.03000730        6 
C      -0.60468855      -2.14359667       0.48398231        6 
C       0.20803770      -3.14282740      -0.35643431        6 
C       1.42973154      -2.25115356      -0.73178415        6 
C       1.18736826      -0.99027568       0.14972273        6 
O       0.42138382      -1.50269914       1.24850146        8 
H      -1.23040559      -1.46251975      -1.46453488        1 
H       0.40958564       0.13262956      -1.59883769        1 
H       1.01654991       3.67614325       0.73507006        1 
H      -4.40170646       0.96247990       0.93605060        1 
H       0.51136604      -3.98863066       0.26260446        1 
H      -0.33988223      -3.52446761      -1.21953681        1 
H       2.37549469      -2.72145543      -0.46000828        1 
H       1.47678105      -2.00455540      -1.79296977        1 
H       0.59858899       4.26834931      -0.90292608        1 
H      -0.68955095       3.81679763       0.25894849        1 
H      -4.55806283       1.09905308      -0.83216012        1 
H      -3.81247876       2.43480096       0.10431871        1 
H      -1.36476061      -2.55869627       1.14028361        1 
C       2.43924668      -0.31818312       0.67174673        6 
O       3.12594467       0.22811047      -0.44120562        8 
H       3.05897508      -1.06456274       1.18944954        1 
H       2.17816464       0.46200327       1.39773625        1 
C       4.26522502       0.98007763      -0.06972295        6 
H       4.71257347       1.36190155      -0.98748894        1 
H       5.00196984       0.35906757       0.45883915        1 
H       3.98956569       1.82484092       0.57653082        1 
