36
Lattice="0.0 0.0 0.0 0.0 0.0 0.0 0.0 0.0 0.0" Properties=species:S:1:pos:R:3:Z:I:1 pbc="F F F"
C      -1.38347692      -0.47940714      -0.70237250        6 
C       0.09226933      -0.00712969      -0.76346509        6 
C      -2.30604675       0.21249607       0.29148101        6 
C       0.36648026       1.47170678      -0.55086343        6 
O      -3.56787058       0.22727679      -0.21478065        8 
O      -2.02521003       0.63189807       1.37997338        8 
O       1.63983991       1.74867926      -0.91658556        8 
O      -0.39494015       2.31115674      -0.14557476        8 
C       2.05802278       3.11418875      -0.75323985        6 
C      -4.57646215       0.78756066       0.64458963        6 
C      -1.14924588      -1.91626061      -0.13581505        6 
C      -0.31470915      -2.77492578      -1.12000957        6 
C       1.13203720      -2.27976101      -0.81557472        6 
C       0.83089148      -1.09367725       0.12656285        6 
O      -0.22995982      -1.64187839       0.92484801        8 
H      -1.86024999      -0.48888783      -1.68110414        1 
H       0.43519559      -0.16887938      -1.78816272        1 
H       1.94649570       3.42671199       0.28639732        1 
H      -4.33186798       1.82113910       0.89369580        1 
H      -0.43154968      -3.83598605      -0.89672683        1 
H      -0.61366419      -2.61634709      -2.15877783        1 
H       1.70481979      -3.03522714      -0.27534913        1 
H       1.70064244      -1.98783430      -1.69751636        1 
H       3.10429379       3.13284302      -1.05080382        1 
H       1.46638903       3.77555511      -1.38875064        1 
H      -4.66030385       0.20779131       1.56573268        1 
H      -5.50301884       0.73793916       0.07621129        1 
H      -2.04166765      -2.39388232       0.26368940        1 
C       1.95275588      -0.64950766       1.04151858        6 
O       3.14316216      -0.54757949       0.28336674        8 
H       2.06074051      -1.39915538       1.83797144        1 
H       1.70069089       0.30862277       1.51543549        1 
C       4.17938980       0.12096596       0.97206959        6 
H       5.04446063       0.14280582       0.30888601        1 
H       4.45139480      -0.40110702       1.90044524        1 
H       3.89017951       1.15181034       1.22034244        1 
