36
Lattice="0.0 0.0 0.0 0.0 0.0 0.0 0.0 0.0 0.0" Properties=species:S:1:pos:R:3:Z:I:1 pbc="F F F"
C      -1.01485740      -0.79919294      -0.50548049        6 
C       0.33110613       0.00147438      -0.60924942        6 
C      -2.19609133      -0.09988152       0.12794881        6 
C       0.26764863       1.40974997      -0.03295039        6 
O      -3.34260339      -0.54608283      -0.44076301        8 
O      -2.17505759       0.68888908       1.03787590        8 
O      -0.37418707       2.20881638      -0.91916443        8 
O       0.68191846       1.79605842       1.02720149        8 
C      -0.66382529       3.54131603      -0.45941288        6 
C      -4.56564842      -0.02847316       0.11517087        6 
C      -0.56447400      -2.03596518       0.34599363        6 
C       0.18791694      -3.00906306      -0.57947637        6 
C       1.50496424      -2.21382260      -0.81212654        6 
C       1.30316645      -0.97974650       0.11416009        6 
O       0.47616250      -1.50905381       1.16730991        8 
H      -1.33580806      -1.12995687      -1.49205471        1 
H       0.60240196       0.11542850      -1.65789929        1 
H       0.25882220       4.08050699      -0.23979777        1 
H      -4.60819245       1.05534624      -0.00369732        1 
H       0.37697594      -3.94769788      -0.05571143        1 
H      -0.36037970      -3.23400997      -1.49619925        1 
H       2.37837484      -2.78002977      -0.48629099        1 
H       1.66185034      -1.92658831      -1.85213142        1 
H      -1.20067433       4.01986273      -1.27598624        1 
H      -1.28164274       3.49732056       0.43871500        1 
H      -4.64004767      -0.27602398       1.17512801        1 
H      -5.36442059      -0.50644476      -0.44777793        1 
H      -1.34398065      -2.47189613       0.96755441        1 
C       2.57767909      -0.40329631       0.69578954        6 
O       3.25454105       0.25902303      -0.36361902        8 
H       3.19474015      -1.21925644       1.09886419        1 
H       2.33354083       0.29386199       1.50039564        1 
C       4.37420502       1.00144000       0.08284263        6 
H       4.82545488       1.46336173      -0.79579122        1 
H       5.11722140       0.35295240       0.56809585        1 
H       4.07224094       1.78487174       0.79005513        1 
