36
Lattice="0.0 0.0 0.0 0.0 0.0 0.0 0.0 0.0 0.0" Properties=species:S:1:pos:R:3:Z:I:1 pbc="F F F"
C      -1.17335424      -1.09265195      -0.66439865        6 
C       0.18428412      -0.31726951      -0.83348615        6 
C      -2.39048288      -0.42873269      -0.03142690        6 
C       0.05131131       1.19654674      -0.91205244        6 
O      -2.22923243       0.85783526       0.29921285        8 
O      -3.40674537      -1.04729257       0.18366263        8 
O       0.45463394       1.86563537       0.17981070        8 
O      -0.38937266       1.73986433      -1.89689906        8 
C       0.27239560       3.28962706       0.13690375        6 
C      -3.35359400       1.49883758       0.93122168        6 
C      -0.71991155      -2.23354938       0.29190650        6 
C       0.24377800      -3.19478223      -0.43274110        6 
C       1.55842908      -2.36508381      -0.42677369        6 
C       1.08367333      -1.04228840       0.22951108        6 
O       0.13408106      -1.52092032       1.20081817        8 
H      -1.52235787      -1.48922904      -1.61888100        1 
H       0.56384453      -0.56028132      -1.82639628        1 
H      -0.77934415       3.53014786      -0.02549373        1 
H      -3.62217806       0.97158940       1.84711619        1 
H       0.35148544      -4.12195790       0.13183764        1 
H      -0.10527112      -3.44993648      -1.43526159        1 
H       2.31595436      -2.82913780       0.20708629        1 
H       1.99211634      -2.21271063      -1.41477405        1 
H       0.60576039       3.65467212       1.10632057        1 
H       0.86643150       3.72964198      -0.66561117        1 
H      -4.20952415       1.51299653       0.25543038        1 
H      -3.02186096       2.51065427       1.15207250        1 
H      -1.53772113      -2.69837992       0.83530704        1 
C       2.17910324      -0.25954416       0.92195502        6 
O       3.02760192       0.25639137      -0.09184580        8 
H       2.73674180      -0.93505841       1.58655841        1 
H       1.74750329       0.54650363       1.51984739        1 
C       3.98249139       1.17530315       0.40029331        6 
H       4.58211107       1.50269742      -0.44941592        1 
H       4.64182913       0.71016684       1.14639870        1 
H       3.49408810       2.04815228       0.85493620        1 
