36
Lattice="0.0 0.0 0.0 0.0 0.0 0.0 0.0 0.0 0.0" Properties=species:S:1:pos:R:3:Z:I:1 pbc="F F F"
C      -1.17346134      -0.92251853      -0.30765105        6 
C       0.07929856      -0.00800659      -0.54138973        6 
C      -2.50771039      -0.26664772      -0.00690966        6 
C      -0.06491229       1.36461559       0.12308758        6 
O      -2.95995119       0.38440648      -1.09814560        8 
O      -3.15708777      -0.43278451       0.99552075        8 
O       1.11682816       1.97021640       0.33828768        8 
O      -1.11618933       1.92073515       0.32933270        8 
C       1.05126055       3.30124652       0.88603319        6 
C      -4.17825349       1.12662261      -0.92372793        6 
C      -0.66058346      -1.92946181       0.75678838        6 
C       0.00638156      -3.08088711      -0.00549322        6 
C       1.18083651      -2.30414976      -0.66484167        6 
C       1.15622200      -0.94618287       0.11320856        6 
O       0.48199777      -1.27334371       1.34053854        8 
H      -1.35812123      -1.45425760      -1.24545573        1 
H       0.27301440       0.17171211      -1.60004233        1 
H       0.52125155       3.29354982       1.83895746        1 
H      -4.03263325       1.89942407      -0.16743138        1 
H       0.36850991      -3.83753392       0.69274655        1 
H      -0.65901090      -3.56166951      -0.72540147        1 
H       2.13850592      -2.80523134      -0.52301481        1 
H       1.04753797      -2.15540827      -1.73748250        1 
H       2.08639413       3.60685718       1.02250017        1 
H       0.54029654       3.97192330       0.19399651        1 
H      -4.99309696       0.46672929      -0.62193210        1 
H      -4.38729230       1.57516282      -1.89270611        1 
H      -1.38126992      -2.17584017       1.53067077        1 
C       2.54747075      -0.42535846       0.41317213        6 
O       3.13120886      -0.04178323      -0.82010807        8 
H       3.12494131      -1.23763716       0.87906987        1 
H       2.51093734       0.41398829       1.11015279        1 
C       4.36860361       0.62186311      -0.66170875        6 
H       4.73266411       0.86910614      -1.65926880        1 
H       5.10842048      -0.01726147      -0.15904582        1 
H       4.24940485       1.54774777      -0.08240164        1 
