36
Lattice="0.0 0.0 0.0 0.0 0.0 0.0 0.0 0.0 0.0" Properties=species:S:1:pos:R:3:Z:I:1 pbc="F F F"
C      -1.11866697      -0.71510204      -0.54458988        6 
C       0.29298233      -0.07858516      -0.76311423        6 
C      -2.30295487       0.20802980      -0.33703652        6 
C       0.41678526       1.41561370      -0.49476950        6 
O      -3.42151657      -0.53980500      -0.18074775        8 
O      -2.31062532       1.41206087      -0.31769877        8 
O       0.22286465       1.73546444       0.79583341        8 
O       0.72384058       2.21475658      -1.34575901        8 
C       0.18276073       3.14091820       1.09139103        6 
C      -4.64885092       0.18696177       0.01936582        6 
C      -0.84902326      -1.72290514       0.62177962        6 
C      -0.19700721      -2.98157565       0.02274704        6 
C       1.19815858      -2.41332809      -0.37088794        6 
C       1.13238366      -0.97335360       0.21556930        6 
O       0.23888726      -1.12466031       1.33064064        8 
H      -1.38995148      -1.28802928      -1.43578854        1 
H       0.62265745      -0.20840513      -1.79094576        1 
H      -0.64866627       3.60309719       0.55707026        1 
H      -4.85038254       0.83637837      -0.83373610        1 
H      -0.10850059      -3.75397737       0.78849881        1 
H      -0.75855895      -3.39400335      -0.81739207        1 
H       2.00802971      -2.97021029       0.10267645        1 
H       1.38198734      -2.41024350      -1.44535974        1 
H       0.03032507       3.20593404       2.16665870        1 
H       1.11674359       3.62562753       0.80265920        1 
H      -4.59085568       0.79127760       0.92589439        1 
H      -5.42189576      -0.57239464       0.11455654        1 
H      -1.68938196      -1.88315891       1.29153767        1 
C       2.46429508      -0.42202729       0.67935723        6 
O       3.28140477      -0.28805517      -0.47049292        8 
H       2.91126063      -1.12134986       1.40108880        1 
H       2.32400157       0.54246930       1.18024594        1 
C       4.51279211       0.35619795      -0.20599785        6 
H       5.05598674       0.40893521      -1.14942478        1 
H       5.11154606      -0.20653978       0.52407368        1 
H       4.35421733       1.37436513       0.17412114        1 
