36
Lattice="0.0 0.0 0.0 0.0 0.0 0.0 0.0 0.0 0.0" Properties=species:S:1:pos:R:3:Z:I:1 pbc="F F F"
C      -0.96571207       1.28255960       0.51309063        6 
C       0.24240636       0.30748031       0.81094481        6 
C      -2.15410671       0.63983231      -0.18397614        6 
C      -0.09271269      -1.16663263       0.71279471        6 
O      -2.84085556      -0.13034444       0.68848367        8 
O      -2.45699947       0.76627732      -1.34204388        8 
O      -0.24626039      -1.57458369      -0.56438040        8 
O      -0.26756363      -1.88498883       1.66499080        8 
C      -0.62325057      -2.94959011      -0.75068488        6 
C      -3.95106979      -0.86780688       0.14687458        6 
C      -0.27389435       2.31288442      -0.40936890        6 
C       0.73080107       3.15445321       0.40813563        6 
C       1.91222520       2.15293914       0.55849877        6 
C       1.33609225       0.89996392      -0.14826396        6 
O       0.57376795       1.47998812      -1.21310653        8 
H      -1.32600723       1.71722311       1.44672018        1 
H       0.55222827       0.43384523       1.84618625        1 
H      -1.54239760      -3.17130055      -0.20650913        1 
H      -3.62732971      -1.47130116      -0.70240913        1 
H       1.02744443       4.04179550      -0.15214327        1 
H       0.31759049       3.48171861       1.36464899        1 
H       2.79521312       2.49729690       0.01740705        1 
H       2.20170683       1.95862582       1.59124830        1 
H      -0.77101619      -3.06596344      -1.82208085        1 
H       0.16771296      -3.61306817      -0.39609571        1 
H      -4.73917317      -0.18704481      -0.17950537        1 
H      -4.30245503      -1.50016229       0.95903798        1 
H      -0.95529047       2.86159814      -1.05366935        1 
C       2.34955726      -0.07072509      -0.71845868        6 
O       2.90917520      -0.78892890       0.36897106        8 
H       3.12598897       0.48654063      -1.26140267        1 
H       1.85172952      -0.74795734      -1.42015840        1 
C       3.80560678      -1.80487902      -0.03775976        6 
H       4.16498923      -2.29676757       0.86603575        1 
H       4.66177146      -1.38864332      -0.58654902        1 
H       3.30457835      -2.54562479      -0.67653825        1 
