36
Lattice="0.0 0.0 0.0 0.0 0.0 0.0 0.0 0.0 0.0" Properties=species:S:1:pos:R:3:Z:I:1 pbc="F F F"
C      -1.01253661      -0.87408087      -0.83290323        6 
C       0.31995007      -0.01883413      -0.74322568        6 
C      -2.20284238      -0.21882194      -0.13958018        6 
C       0.08811808       1.40440574      -0.26998449        6 
O      -2.51751435      -0.79653336       1.03024684        8 
O      -2.80843177       0.72085196      -0.59976313        8 
O      -0.33899861       2.14644339      -1.30700773        8 
O       0.28804809       1.85009104       0.83436081        8 
C      -0.75217949       3.49071276      -1.00552343        6 
C      -3.59763675      -0.19227370       1.76596221        6 
C      -0.53047467      -2.18752970      -0.17313090        6 
C       0.47801861      -2.89808237      -1.10346613        6 
C       1.76131556      -2.05182652      -0.86421353        6 
C       1.23006859      -0.96374213       0.10392770        6 
O       0.29368960      -1.70746825       0.90033728        8 
H      -1.30651581      -0.99917685      -1.87535676        1 
H       0.72769465       0.08182910      -1.74814701        1 
H       0.06226077       4.04916250      -0.54229806        1 
H      -4.51196649      -0.18862665       1.17095085        1 
H       0.61727000      -3.93416534      -0.79219758        1 
H       0.15025137      -2.90214405      -2.14557972        1 
H       2.53450588      -2.63598612      -0.36201621        1 
H       2.19152329      -1.63222508      -1.77372564        1 
H      -1.02576721       3.92960953      -1.96223831        1 
H      -1.61476714       3.47093357      -0.33809739        1 
H      -3.33836726       0.83174440       2.03827243        1 
H      -3.71727647      -0.80553984       2.65610227        1 
H      -1.32426219      -2.81018112       0.22846892        1 
C       2.27243240      -0.31730868       0.98923940        6 
O       3.10798307       0.46092267       0.14436681        8 
H       2.85309066      -1.10165029       1.49578280        1 
H       1.78600925       0.30886723       1.74102472        1 
C       3.98238387       1.30773956       0.86638857        6 
H       4.56613161       1.86642423       0.13429647        1 
H       4.66633634       0.72904196       1.50320734        1 
H       3.41874147       2.00972474       1.49417015        1 
