36
Lattice="0.0 0.0 0.0 0.0 0.0 0.0 0.0 0.0 0.0" Properties=species:S:1:pos:R:3:Z:I:1 pbc="F F F"
C      -1.37143854      -0.48423366      -0.87795122        6 
C       0.14173226      -0.10223611      -0.88873919        6 
C      -2.20780574       0.37279319       0.08657541        6 
C       0.41332638       1.39217009      -0.99761669        6 
O      -3.21213484      -0.34915776       0.63327862        8 
O      -2.09205621       1.55705248       0.26904101        8 
O       1.38426652       1.84421649      -0.18661996        8 
O      -0.20006700       2.09650190      -1.75925463        8 
C       1.65436011       3.25680610      -0.27161836        6 
C      -4.09741086       0.36974563       1.50993525        6 
C      -1.24042252      -1.90044207      -0.26472968        6 
C      -0.33987574      -2.83194152      -1.10946970        6 
C       1.08526950      -2.38850362      -0.66659712        6 
C       0.74319343      -1.12329751       0.15149314        6 
O      -0.41721354      -1.57990138       0.87936704        8 
H      -1.82832931      -0.43826392      -1.86733168        1 
H       0.51136319      -0.42461331      -1.86924102        1 
H       0.75432297       3.82648891      -0.03786423        1 
H      -4.59367660       1.17990808       0.97320235        1 
H      -0.53224886      -3.87687383      -0.86422330        1 
H      -0.51450751      -2.70550678      -2.18073132        1 
H       1.54580097      -3.13047036      -0.01174024        1 
H       1.76841162      -2.18632876      -1.49118147        1 
H       2.43494519       3.44582907       0.46229646        1 
H       1.99849040       3.51948869      -1.27300057        1 
H      -3.54196941       0.78374241       2.35249909        1 
H      -4.82270776      -0.36473080       1.85378177        1 
H      -2.17538828      -2.33331362       0.07112198        1 
C       1.80379441      -0.68240136       1.13567440        6 
O       3.01994182      -0.52944212       0.42486564        8 
H       1.90076946      -1.46284587       1.90447562        1 
H       1.51345850       0.25415996       1.62172318        1 
C       4.02104728       0.11946264       1.18096988        6 
H       4.90827736       0.18678054       0.55074723        1 
H       4.26943976      -0.44578210       2.09069645        1 
H       3.70528616       1.13116257       1.46922264        1 
