36
Lattice="0.0 0.0 0.0 0.0 0.0 0.0 0.0 0.0 0.0" Properties=species:S:1:pos:R:3:Z:I:1 pbc="F F F"
C      -1.06034421      -1.19943282      -0.61267020        6 
C       0.21058172      -0.28962495      -0.81297446        6 
C      -2.33591870      -0.65497939       0.02412548        6 
C      -0.02286126       1.21249947      -0.80722406        6 
O      -2.47746385       0.67251536      -0.07311934        8 
O      -3.17416096      -1.37795067       0.50885983        8 
O       0.17245268       1.79850641       0.38920381        8 
O      -0.38590444       1.81372949      -1.78812407        8 
C      -0.10903515       3.20550134       0.44659695        6 
C      -3.70633413       1.22685623       0.43249179        6 
C      -0.47159972      -2.31009636       0.29709134        6 
C       0.53959936      -3.16852907      -0.48875652        6 
C       1.77241789      -2.22316447      -0.52863047        6 
C       1.21684191      -0.96444893       0.18676946        6 
O       0.35797572      -1.54415555       1.18538746        8 
H      -1.38672160      -1.60321017      -1.57487234        1 
H       0.56768271      -0.45852258      -1.82867211        1 
H      -1.15200430       3.39248862       0.18696489        1 
H      -3.77373481       1.07559530       1.51073597        1 
H       0.75762267      -4.08901287       0.05441964        1 
H       0.16897743      -3.44249126      -1.47870553        1 
H       2.60272570      -2.62940261       0.05137139        1 
H       2.13508118      -2.00733111      -1.53338971        1 
H       0.08949358       3.50045333       1.47507479        1 
H       0.53404606       3.75492925      -0.24268652        1 
H      -4.56239528       0.75742259      -0.05343489        1 
H      -3.66315796       2.28673715       0.19247570        1 
H      -1.22356551      -2.85095835       0.86356957        1 
C       2.26662080      -0.09541919       0.84697196        6 
O       2.96627559       0.57448750      -0.18988882        8 
H       2.95022052      -0.72989749       1.42932867        1 
H       1.78987508       0.61995937       1.52159733        1 
C       3.87006396       1.54813040       0.29430854        6 
H       4.34176674       2.01026838      -0.57313717        1 
H       4.64723490       1.09700886       0.92712935        1 
H       3.34629587       2.31971175       0.87531317        1 
