36
Lattice="0.0 0.0 0.0 0.0 0.0 0.0 0.0 0.0 0.0" Properties=species:S:1:pos:R:3:Z:I:1 pbc="F F F"
C      -1.14857722      -0.69286061      -0.75098910        6 
C       0.29334570      -0.06047345      -0.71932824        6 
C      -2.25042301       0.19566608      -0.19305237        6 
C       0.35802025       1.32918651      -0.11359819        6 
O      -3.12778310      -0.48605237       0.56437915        8 
O      -2.36926201       1.36786806      -0.45533715        8 
O       0.57864268       2.25078406      -1.06835908        8 
O       0.23230649       1.59221410       1.05806333        8 
C       0.52599940       3.62078195      -0.63475066        6 
C      -4.22892952       0.27715635       1.09629425        6 
C      -0.91069650      -2.03511579      -0.02005663        6 
C      -0.10312759      -2.97994371      -0.93794607        6 
C       1.31686396      -2.35073122      -0.83876285        6 
C       1.05575459      -1.15408642       0.11012822        6 
O       0.04156441      -1.67120113       0.98622707        8 
H      -1.44473681      -0.86176376      -1.79107796        1 
H       0.69987962       0.00845884      -1.72524166        1 
H       1.28872397       3.81464777       0.12102644        1 
H      -4.81424985       0.71532812       0.28671538        1 
H      -0.11819881      -3.99610227      -0.54116900        1 
H      -0.49564356      -3.01031577      -1.95680417        1 
H       2.02411152      -3.03799534      -0.37152666        1 
H       1.73187194      -2.04052292      -1.79744471        1 
H       0.71056983       4.21480359      -1.52723862        1 
H      -0.46027528       3.83921721      -0.22279506        1 
H      -3.85655437       1.07096214       1.74456469        1 
H      -4.82551309      -0.43447136       1.66251725        1 
H      -1.79398911      -2.46037849       0.44485950        1 
C       2.24114242      -0.68629353       0.92833080        6 
O       3.12104494      -0.00747668       0.04557909        8 
H       2.73840185      -1.55427213       1.38459022        1 
H       1.89716469      -0.01976287       1.72556004        1 
C       4.20327233       0.61204117       0.71475115        6 
H       4.80624459       1.11247182      -0.04332777        1 
H       4.82660247      -0.12585416       1.23896732        1 
H       3.84737818       1.35405395       1.44241678        1 
