36
Lattice="0.0 0.0 0.0 0.0 0.0 0.0 0.0 0.0 0.0" Properties=species:S:1:pos:R:3:Z:I:1 pbc="F F F"
C      -1.00628557       1.14373911       0.38861443        6 
C       0.17046525       0.10901688       0.64227054        6 
C      -2.35939450       0.60674463      -0.04641819        6 
C      -0.19472305      -1.33177334       0.29351076        6 
O      -2.97225119      -0.01346925       0.97280355        8 
O      -2.88308673       0.81848985      -1.11462110        8 
O       0.39647855      -1.80333958      -0.81911588        8 
O      -1.00466345      -1.97189727       0.91884181        8 
C       0.02673608      -3.13613299      -1.21562714        6 
C      -4.24840894      -0.61182171       0.68818818        6 
C      -0.35376910       2.11030354      -0.63438383        6 
C       0.53190238       3.09767088       0.14179379        6 
C       1.65804275       2.13941274       0.62040537        6 
C       1.31175294       0.82165118      -0.14449924        6 
O       0.61762864       1.29522026      -1.30964677        8 
H      -1.20647498       1.65851600       1.33107064        1 
H       0.39350165       0.07580569       1.70821521        1 
H      -1.04513775      -3.19123967      -1.41007571        1 
H      -4.14958341      -1.34704894      -0.11153023        1 
H       0.91860201       3.86407857      -0.53193616        1 
H       0.00396430       3.59494765       0.95839172        1 
H       2.64575148       2.49598701       0.32575233        1 
H       1.67004557       1.99202749       1.70122960        1 
H       0.59020998      -3.33189393      -2.12551301        1 
H       0.28898519      -3.85360347      -0.43667580        1 
H      -4.97274580       0.14961659       0.39386178        1 
H      -4.55081336      -1.09726458       1.61294970        1 
H      -1.04665836       2.52747554      -1.35923746        1 
C       2.53046214       0.01374204      -0.54930197        6 
O       2.99400477      -0.66236878       0.60982019        8 
H       3.30271518       0.69610614      -0.93245661        1 
H       2.27188073      -0.69657594      -1.33697195        1 
C       4.10513531      -1.49759659       0.34896667        6 
H       4.37078940      -1.98486001       1.28732181        1 
H       4.96700540      -0.91849248      -0.01140663        1 
H       3.85850238      -2.26348335      -0.39920542        1 
