36
Lattice="0.0 0.0 0.0 0.0 0.0 0.0 0.0 0.0 0.0" Properties=species:S:1:pos:R:3:Z:I:1 pbc="F F F"
C      -1.17685019      -1.01003872      -0.64275404        6 
C       0.14800593      -0.15872683      -0.75690609        6 
C      -2.46885240      -0.25942644      -0.37699827        6 
C      -0.07617301       1.33691265      -0.54267196        6 
O      -2.52959470       0.20883914       0.88528352        8 
O      -3.35386626      -0.13229117      -1.18567315        8 
O       0.93889756       1.96869514       0.06769503        8 
O      -1.05081518       1.91925336      -0.95337463        8 
C       0.79469084       3.39477454       0.21248175        6 
C      -3.67439716       1.02333070       1.19368804        6 
C      -0.79262557      -2.02198908       0.48085213        6 
C       0.05080281      -3.14230189      -0.14386263        6 
C       1.34622563      -2.35582396      -0.48317390        6 
C       1.07759648      -0.97627141       0.20018047        6 
O       0.17456554      -1.31032096       1.26601607        8 
H      -1.35656408      -1.53060933      -1.58268567        1 
H       0.52811960      -0.21537783      -1.78027698        1 
H      -0.10649122       3.63007294       0.77978105        1 
H      -4.59871457       0.46653709       1.03246751        1 
H       0.24137733      -3.92053865       0.59688881        1 
H      -0.42395558      -3.60232955      -1.01258465        1 
H       2.23088919      -2.82351215      -0.04970639        1 
H       1.52421817      -2.25170895      -1.55382447        1 
H       1.68339402       3.72019766       0.74889742        1 
H       0.73973343       3.87234249      -0.76664840        1 
H      -3.67327027       1.91375617       0.56300485        1 
H      -3.56551514       1.29186573       2.24237269        1 
H      -1.61875346      -2.33280642       1.11524634        1 
C       2.33027232      -0.34937385       0.77680210        6 
O       3.17773403      -0.01514917      -0.30929572        8 
H       2.81405059      -1.08878079       1.43135855        1 
H       2.08627952       0.53327439       1.37109386        1 
C       4.31203203       0.72798828       0.08882816        6 
H       4.89644689       0.93143940      -0.80892893        1 
H       4.93264175       0.16568859       0.80097983        1 
H       4.01886979       1.68022974       0.55209298        1 
