36
Lattice="0.0 0.0 0.0 0.0 0.0 0.0 0.0 0.0 0.0" Properties=species:S:1:pos:R:3:Z:I:1 pbc="F F F"
C      -0.82331373       1.05813285       0.40854304        6 
C       0.29823266      -0.04912948       0.53426453        6 
C      -2.19243265       0.63147556      -0.07986577        6 
C      -0.01556866      -1.39315002      -0.12129770        6 
O      -2.98726234       0.30201763       0.96017556        8 
O      -2.57921639       0.68617828      -1.22155911        8 
O      -1.25449158      -1.80615037       0.21978451        8 
O       0.72922503      -2.06794880      -0.78535035        8 
C      -1.67678450      -3.07164357      -0.32142733        6 
C      -4.30937089      -0.14620371       0.62217207        6 
C      -0.12506957       2.10031667      -0.51478606        6 
C       0.75599769       2.98758695       0.37612373        6 
C       1.82386662       1.94702521       0.81693449        6 
C       1.49338699       0.72834044      -0.10042509        6 
O       0.85068940       1.33274247      -1.23444627        8 
H      -0.98761469       1.48102683       1.40052676        1 
H       0.48422349      -0.27808731       1.58560889        1 
H      -0.99069880      -3.86432053      -0.02067129        1 
H      -4.25908098      -1.02014622      -0.02973128        1 
H       1.19994241       3.78898878      -0.21688577        1 
H       0.21136912       3.43740148       1.20885257        1 
H       2.83806050       2.29611704       0.62154351        1 
H       1.76343675       1.68797607       1.87495956        1 
H      -2.66771833      -3.24546427       0.09216844        1 
H      -1.71821499      -3.02048778      -1.41029390        1 
H      -4.86729873       0.64374585       0.11659373        1 
H      -4.78113581      -0.40215033       1.56849858        1 
H      -0.78880879       2.59539557      -1.21786942        1 
C       2.71613276      -0.04802837      -0.54647996        6 
O       3.21842451      -0.73125973       0.59193610        8 
H       3.46310952       0.66167187      -0.93192218        1 
H       2.45324453      -0.74995504      -1.33901522        1 
C       4.20363106      -1.69245042       0.26200693        6 
H       4.52347070      -2.15864556       1.19446608        1 
H       5.07448945      -1.22617152      -0.22056015        1 
H       3.79382416      -2.46073481      -0.40609772        1 
