36
Lattice="0.0 0.0 0.0 0.0 0.0 0.0 0.0 0.0 0.0" Properties=species:S:1:pos:R:3:Z:I:1 pbc="F F F"
C      -1.17295864      -0.95899382      -0.37696472        6 
C       0.06059782      -0.03208104      -0.54216960        6 
C      -2.55528594      -0.37960632      -0.16398756        6 
C      -0.01563657       1.25311479       0.26540755        6 
O      -2.67850871       0.84973695      -0.69581681        8 
O      -3.49313475      -1.03207184       0.22892387        8 
O       0.87399125       2.15821494      -0.20526023        8 
O      -0.75375664       1.47461114       1.19074127        8 
C       0.91887736       3.41368726       0.49432461        6 
C      -3.98978059       1.43881885      -0.63439690        6 
C      -0.68088838      -2.03148828       0.63609381        6 
C       0.05143993      -3.11674036      -0.16878742        6 
C       1.25893320      -2.28851864      -0.69809123        6 
C       1.13476753      -0.97535841       0.13242181        6 
O       0.41783528      -1.38943931       1.30485916        8 
H      -1.31442564      -1.45901277      -1.34366953        1 
H       0.30837289       0.19814668      -1.57552249        1 
H       1.22002391       3.26300027       1.53274048        1 
H      -4.29521097       1.56596777       0.40505897        1 
H       0.38015634      -3.91687367       0.49654785        1 
H      -0.56171768      -3.55330135      -0.95928633        1 
H       2.21325062      -2.77475052      -0.49416105        1 
H       1.21420251      -2.09229609      -1.76998639        1 
H       1.65578450       4.01433711      -0.03464418        1 
H      -0.05837043       3.89836894       0.47446484        1 
H      -4.71719829       0.81151350      -1.15189316        1 
H      -3.89574123       2.40518932      -1.12466285        1 
H      -1.42582483      -2.35844895       1.35565775        1 
C       2.45736514      -0.35651503       0.53137778        6 
O       3.14340848      -0.01049976      -0.65638739        8 
H       3.02950493      -1.09067162       1.11734025        1 
H       2.29888378       0.52448282       1.16600512        1 
C       4.29218435       0.78043374      -0.42551498        6 
H       4.74187879       0.98489854      -1.39730841        1 
H       5.02411107       0.25585114       0.20466347        1 
H       4.02725757       1.73217694       0.05510288        1 
