36
Lattice="0.0 0.0 0.0 0.0 0.0 0.0 0.0 0.0 0.0" Properties=species:S:1:pos:R:3:Z:I:1 pbc="F F F"
C      -1.03568488      -1.00762374      -0.81143788        6 
C       0.21820599      -0.09132293      -0.80229633        6 
C      -2.18139855      -0.64514915       0.12456566        6 
C      -0.01400431       1.40196120      -0.66384251        6 
O      -1.86382210       0.29308019       1.03126652        8 
O      -3.23106115      -1.24454689       0.12785582        8 
O      -1.20878719       1.73525635      -1.20554620        8 
O       0.80490143       2.22361299      -0.33526309        8 
C      -1.51341372       3.13817262      -1.26062267        6 
C      -2.85582344       0.56868831       2.03570102        6 
C      -0.40340679      -2.29148625      -0.19180241        6 
C       0.70933741      -2.86220934      -1.10162072        6 
C       1.90409461      -1.92464354      -0.75670605        6 
C       1.20348670      -0.87774144       0.13890386        6 
O       0.32377094      -1.72297115       0.90916865        8 
H      -1.45365936      -1.17257494      -1.80303978        1 
H       0.64557440      -0.12902932      -1.81132569        1 
H      -0.76164759       3.67331447      -1.84271106        1 
H      -3.06313615      -0.32962025       2.61908679        1 
H       0.92134872      -3.89938992      -0.83954157        1 
H       0.42975814      -2.83418234      -2.15727025        1 
H       2.66429125      -2.44818861      -0.17485011        1 
H       2.38764189      -1.47899573      -1.62538162        1 
H      -2.48823533       3.20388008      -1.73916391        1 
H      -1.55339441       3.55715504      -0.25355056        1 
H      -3.77983756       0.91869116       1.57290903        1 
H      -2.42228664       1.34270423       2.66494877        1 
H      -1.13256404      -3.00962762       0.17510790        1 
C       2.10819879      -0.09518218       1.06521657        6 
O       3.16706774       0.43432864       0.28774769        8 
H       2.49465145      -0.77913641       1.83492963        1 
H       1.54772635       0.70256048       1.56361572        1 
C       3.82224770       1.52568949       0.90711148        6 
H       4.62056126       1.84087197       0.23449863        1 
H       4.26257179       1.23503571       1.87170441        1 
H       3.12706745       2.35961537       1.05864722        1 
