36
Lattice="0.0 0.0 0.0 0.0 0.0 0.0 0.0 0.0 0.0" Properties=species:S:1:pos:R:3:Z:I:1 pbc="F F F"
C      -0.85839324       1.17123953       0.50789754        6 
C       0.27616095       0.06789930       0.60161624        6 
C      -2.10493073       0.74103430      -0.24263785        6 
C      -0.11819659      -1.26446730      -0.01010172        6 
O      -3.00230599       0.18787151       0.60401845        8 
O      -2.29770390       0.86667028      -1.42482531        8 
O      -0.82328511      -1.98404220       0.89260247        8 
O       0.13731215      -1.66961592      -1.11558405        8 
C      -1.30377939      -3.26222061       0.44140760        6 
C      -4.20360179      -0.32426602      -0.00109319        6 
C      -0.09705052       2.30356268      -0.22874410        6 
C       0.85886898       2.99246167       0.76451126        6 
C       1.95703925       1.90050533       0.91452208        6 
C       1.45944779       0.81552139      -0.08315428        6 
O       0.79935527       1.59324773      -1.09106588        8 
H      -1.16444637       1.46577550       1.51155739        1 
H       0.49418415      -0.13522318       1.64851159        1 
H      -0.46813130      -3.91740736       0.18976590        1 
H      -3.96037515      -1.06810225      -0.76176964        1 
H       1.26195246       3.90534106       0.32350660        1 
H       0.37434307       3.25628670       1.70693489        1 
H       2.93477377       2.26982445       0.60130882        1 
H       2.05567181       1.51473566       1.92951343        1 
H      -1.87140484      -3.66958588       1.27518234        1 
H      -1.94010857      -3.14412923      -0.43733027        1 
H      -4.77429198       0.48276002      -0.46348147        1 
H      -4.76831057      -0.77561579       0.81162839        1 
H      -0.73075532       2.95500777      -0.82490989        1 
C       2.54578638      -0.03979493      -0.70230353        6 
O       3.01070231      -0.91702240       0.31469349        8 
H       3.35943390       0.60713362      -1.05984910        1 
H       2.14112495      -0.60157299      -1.54747406        1 
C       3.92391196      -1.88410962      -0.16955038        6 
H       4.20084628      -2.51637836       0.67454033        1 
H       4.82983021      -1.41254628      -0.57556171        1 
H       3.46504572      -2.50224994      -0.95213723        1 
