36
Lattice="0.0 0.0 0.0 0.0 0.0 0.0 0.0 0.0 0.0" Properties=species:S:1:pos:R:3:Z:I:1 pbc="F F F"
C      -1.02100586      -0.98220009      -0.78326733        6 
C       0.35146135      -0.20935050      -0.88475613        6 
C      -2.20842258      -0.09786652      -0.43298537        6 
C       0.24454214       1.29828058      -0.75685816        6 
O      -2.85016774      -0.48974086       0.68069526        8 
O      -2.56697420       0.83245077      -1.11478611        8 
O      -0.18024643       1.67511700       0.46973157        8 
O       0.47749802       2.07323925      -1.64832866        8 
C      -0.47718314       3.07397204       0.62605898        6 
C      -3.98884850       0.30281017       1.06363865        6 
C      -0.66771051      -2.07626727       0.24965659        6 
C       0.28853262      -3.10395884      -0.39482730        6 
C       1.62819672      -2.31234912      -0.39360699        6 
C       1.18038802      -0.96120314       0.21765340        6 
O       0.18369885      -1.37005478       1.16521759        8 
H      -1.26683527      -1.40810579      -1.75907291        1 
H       0.79897206      -0.36842404      -1.86264492        1 
H      -1.29251561       3.35434822      -0.04290324        1 
H      -4.74433076       0.29277858       0.27661047        1 
H       0.35385333      -4.00099984       0.22236987        1 
H      -0.03458139      -3.40445339      -1.39384853        1 
H       2.36544076      -2.77982361       0.26126796        1 
H       2.07702348      -2.19775694      -1.37998333        1 
H      -0.77319879       3.19265580       1.66639090        1 
H       0.40046469       3.68228570       0.40330412        1 
H      -3.68328097       1.33197949       1.25660896        1 
H      -4.37061073      -0.15971540       1.97103394        1 
H      -1.51726424      -2.48704523       0.78551962        1 
C       2.26389769      -0.17145159       0.92174546        6 
O       3.16295964       0.28794216      -0.07254203        8 
H       2.77620834      -0.82174426       1.64530329        1 
H       1.81779264       0.66736875       1.46815585        1 
C       4.14172141       1.17834905       0.42811203        6 
H       4.77277792       1.46635868      -0.41246927        1 
H       4.76204404       0.70072330       1.19923915        1 
H       3.67858871       2.07908434       0.85394154        1 
