36
Lattice="0.0 0.0 0.0 0.0 0.0 0.0 0.0 0.0 0.0" Properties=species:S:1:pos:R:3:Z:I:1 pbc="F F F"
C      -0.97661480       1.27416519       0.49274115        6 
C       0.23660146       0.29909867       0.78603679        6 
C      -2.17543908       0.63672845      -0.19284042        6 
C      -0.11742426      -1.17323421       0.69325028        6 
O      -2.87843195      -0.10291073       0.68837011        8 
O      -2.48392151       0.76681216      -1.35041903        8 
O      -0.02431654      -1.66325352      -0.56003864        8 
O      -0.54296819      -1.81325113       1.62238400        8 
C      -0.42328419      -3.03447332      -0.73102442        6 
C      -4.00861364      -0.81978762       0.16148879        6 
C      -0.28774732       2.30359146      -0.43426055        6 
C       0.69427082       3.16280839       0.39111372        6 
C       1.87992002       2.17307488       0.57074774        6 
C       1.33644123       0.91004359      -0.14633553        6 
O       0.58056969       1.47797775      -1.22403511        8 
H      -1.32964148       1.71235575       1.42707272        1 
H       0.52853094       0.41938290       1.82821824        1 
H      -1.46380575      -3.16869625      -0.43187269        1 
H      -3.69283172      -1.49064372      -0.63952016        1 
H       0.99179299       4.04847050      -0.17145547        1 
H       0.26153525       3.49365157       1.33763021        1 
H       2.77314425       2.52521192       0.05204263        1 
H       2.14564863       1.98374785       1.61102947        1 
H      -0.29866874      -3.24200728      -1.79149053        1 
H       0.20755814      -3.69211855      -0.13050442        1 
H      -4.75502714      -0.12596506      -0.22888462        1 
H      -4.40777098      -1.38519419       1.00020290        1 
H      -0.96873793       2.83774710      -1.09099874        1 
C       2.38503754      -0.03539386      -0.69854304        6 
O       2.90053973      -0.78482792       0.39109470        8 
H       3.18313795       0.54610185      -1.18148207        1 
H       1.92768858      -0.69302303      -1.44257317        1 
C       3.80975414      -1.79094889      -0.01080678        6 
H       4.13467406      -2.31007307       0.89096851        1 
H       4.68706212      -1.36191317      -0.51462069        1 
H       3.33090695      -2.51021236      -0.68981359        1 
