36
Lattice="0.0 0.0 0.0 0.0 0.0 0.0 0.0 0.0 0.0" Properties=species:S:1:pos:R:3:Z:I:1 pbc="F F F"
C      -1.05048590      -1.00703298      -0.81435495        6 
C       0.20747192      -0.09173360      -0.79679633        6 
C      -2.13944748      -0.71721082       0.22478593        6 
C      -0.02261473       1.40128428      -0.65787213        6 
O      -2.01351181       0.47158481       0.83749234        8 
O      -2.96645498      -1.53628732       0.54705317        8 
O      -1.10172814       1.75069781      -1.39798343        8 
O       0.72537620       2.21057920      -0.16979082        8 
C      -1.41163026       3.15172103      -1.44544720        6 
C      -2.91441141       0.72079606       1.93235108        6 
C      -0.38822944      -2.31720788      -0.29912793        6 
C       0.74421626      -2.80335951      -1.23074415        6 
C       1.92620093      -1.88542195      -0.80025519        6 
C       1.19209194      -0.89418192       0.12834968        6 
O       0.31652134      -1.79190804       0.84501341        8 
H      -1.51181227      -1.09459013      -1.79799385        1 
H       0.62388006      -0.12879778      -1.81032460        1 
H      -0.57147157       3.72055410      -1.84662111        1 
H      -2.78119652      -0.03510084       2.70729123        1 
H       0.96320914      -3.85600056      -1.04884113        1 
H       0.47847819      -2.69524469      -2.28498636        1 
H       2.66923527      -2.43999263      -0.22474029        1 
H       2.43409485      -1.39059003      -1.62751417        1 
H      -2.27826338       3.23538052      -2.09793110        1 
H      -1.65138220       3.52065767      -0.44635328        1 
H      -3.94839430       0.70495487       1.58518150        1 
H      -2.64732243       1.70692725       2.30557304        1 
H      -1.10163330      -3.07009747       0.02095095        1 
C       2.06198408      -0.13406404       1.10450699        6 
O       3.11283299       0.46443455       0.36696902        8 
H       2.46076048      -0.84406520       1.84372864        1 
H       1.47159742       0.62165366       1.63275554        1 
C       3.74355887       1.52684134       1.05756510        6 
H       4.53046449       1.90721898       0.40553103        1 
H       4.19605540       1.18200843       1.99851626        1 
H       3.02908586       2.33089439       1.26881693        1 
