36
Lattice="0.0 0.0 0.0 0.0 0.0 0.0 0.0 0.0 0.0" Properties=species:S:1:pos:R:3:Z:I:1 pbc="F F F"
C      -0.81079459       1.10580382       0.42456993        6 
C       0.29412034      -0.02468043       0.52590611        6 
C      -2.17235091       0.69564078      -0.09731596        6 
C      -0.06777320      -1.32404355      -0.18889843        6 
O      -2.94289741       0.22118870       0.90211803        8 
O      -2.57247108       0.86245413      -1.22383003        8 
O      -1.12711553      -1.89967730       0.42234229        8 
O       0.49526720      -1.83296209      -1.12379029        8 
C      -1.59080966      -3.13776029      -0.14617878        6 
C      -4.24878003      -0.24522335       0.52514439        6 
C      -0.08409121       2.16788197      -0.44760995        6 
C       0.81612517       2.99505190       0.48409801        6 
C       1.86809315       1.91738299       0.87171593        6 
C       1.50176916       0.74360818      -0.08737722        6 
O       0.87540093       1.40838853      -1.19640687        8 
H      -0.98923490       1.49069830       1.42984681        1 
H       0.46436147      -0.28955112       1.56948526        1 
H      -0.80409798      -3.89292784      -0.11286789        1 
H      -4.16576840      -1.05807764      -0.19872292        1 
H       1.27253160       3.81616173      -0.07124842        1 
H       0.28195087       3.41439995       1.33920141        1 
H       2.88631640       2.25460329       0.67580328        1 
H       1.81552481       1.61863372       1.91973372        1 
H      -2.43580818      -3.43869010       0.46951286        1 
H      -1.90090766      -2.98818576      -1.18164949        1 
H      -4.83689564       0.56352892       0.08870595        1 
H      -4.70748165      -0.59992360       1.44553576        1 
H      -0.73199466       2.71008471      -1.13051113        1 
C       2.69215178      -0.06628231      -0.56294143        6 
O       3.12149376      -0.86281817       0.53287791        8 
H       3.49138782       0.62066511      -0.87748079        1 
H       2.40628714      -0.69139668      -1.41014732        1 
C       4.11512866      -1.80219266       0.16820329        6 
H       4.37565138      -2.36135761       1.06747377        1 
H       5.01647989      -1.30424958      -0.21635192        1 
H       3.74070346      -2.49712401      -0.59502053        1 
