36
Lattice="0.0 0.0 0.0 0.0 0.0 0.0 0.0 0.0 0.0" Properties=species:S:1:pos:R:3:Z:I:1 pbc="F F F"
C      -1.09579364      -0.95073023      -0.84463503        6 
C       0.19247492      -0.09404323      -0.82619104        6 
C      -2.20993625      -0.63050406       0.14858041        6 
C       0.10785326       1.42379636      -0.80524308        6 
O      -1.87768054       0.27871068       1.07500972        8 
O      -3.23844362      -1.26695008       0.18214251        8 
O      -1.15726670       1.86835740      -0.94169950        8 
O       1.06652620       2.15186216      -0.91062542        8 
C      -1.31566287       3.28184003      -1.15522415        6 
C      -2.82786692       0.47474408       2.13595011        6 
C      -0.48339272      -2.27591323      -0.28134030        6 
C       0.65288395      -2.81999295      -1.18071138        6 
C       1.86040217      -1.94169809      -0.73223803        6 
C       1.13497167      -0.90380982       0.14962236        6 
O       0.21781640      -1.75875869       0.86270324        8 
H      -1.53707236      -1.06089312      -1.83422221        1 
H       0.63501288      -0.21279880      -1.82239611        1 
H      -0.78094134       3.59562605      -2.05307992        1 
H      -2.97891313      -0.45531703       2.68628631        1 
H       0.82514490      -3.87767763      -0.97866934        1 
H       0.41758117      -2.71733109      -2.24260574        1 
H       2.56139017      -2.51275364      -0.12157339        1 
H       2.41186315      -1.48498025      -1.55304701        1 
H      -2.38622363       3.43707416      -1.26986761        1 
H      -0.93664899       3.84251190      -0.29945908        1 
H      -3.78410978       0.81419325       1.73471572        1 
H      -2.39013415       1.23449541       2.77975222        1 
H      -1.22750405      -3.00199575       0.03492682        1 
C       1.98826344      -0.12543455       1.12843924        6 
O       3.15997168       0.29611857       0.45493097        8 
H       2.23958050      -0.78112868       1.97437440        1 
H       1.42666454       0.73232406       1.51703667        1 
C       3.76232857       1.44104569       1.02867166        6 
H       4.65408208       1.65860334       0.44041272        1 
H       4.05789680       1.26227663       2.07241915        1 
H       3.08400898       2.30146925       0.98184366        1 
