36
Lattice="0.0 0.0 0.0 0.0 0.0 0.0 0.0 0.0 0.0" Properties=species:S:1:pos:R:3:Z:I:1 pbc="F F F"
C      -0.81058109       1.04946892       0.71625970        6 
C       0.34519762      -0.03170147       0.68009877        6 
C      -2.22969072       0.58047873       0.46177806        6 
C      -0.01299458      -1.40730885       0.12009212        6 
O      -2.50379083       0.50676382      -0.85773093        8 
O      -3.01912268       0.29086601       1.32579130        8 
O      -1.20261271      -1.81769191       0.59803416        8 
O       0.68416934      -2.10915147      -0.56905188        8 
C      -1.64396980      -3.12630139       0.19811739        6 
C      -3.80026758      -0.00749841      -1.20590502        6 
C      -0.26095494       2.11585771      -0.27996757        6 
C       0.73543485       3.00305012       0.48134975        6 
C       1.87622501       1.97840112       0.72905586        6 
C       1.41644464       0.76128548      -0.13360440        6 
O       0.59932411       1.36750553      -1.15014350        8 
H      -0.85065757       1.46316665       1.72439119        1 
H       0.69171268      -0.23076772       1.69648966        1 
H      -0.93770042      -3.88652868       0.53492125        1 
H      -4.58831973       0.62746657      -0.79829663        1 
H       1.06778607       3.82251237      -0.15811183        1 
H       0.31880029       3.42741252       1.39695668        1 
H       2.83844060       2.34810389       0.37321710        1 
H       1.99782590       1.70968818       1.77914608        1 
H      -2.61109579      -3.25965606       0.67771101        1 
H      -1.73830062      -3.17970607      -0.88779692        1 
H      -3.92023466      -1.02013755      -0.81714095        1 
H      -3.83068388      -0.00738692      -2.29330112        1 
H      -1.01934699       2.62371102      -0.86942563        1 
C       2.56552589       0.00511021      -0.76953629        6 
O       3.27128253      -0.63728812       0.28004178        8 
H       3.21450260       0.72611314      -1.28824251        1 
H       2.19414101      -0.72048784      -1.49414034        1 
C       4.19576520      -1.60167974      -0.18719008        6 
H       4.66753852      -2.04535676       0.69024037        1 
H       4.97287278      -1.14260276      -0.81508720        1 
H       3.68722086      -2.38611327      -0.76150221        1 
