36
Lattice="0.0 0.0 0.0 0.0 0.0 0.0 0.0 0.0 0.0" Properties=species:S:1:pos:R:3:Z:I:1 pbc="F F F"
C      -1.31358329      -0.64862706      -0.60101110        6 
C       0.12150323      -0.02736890      -0.70786750        6 
C      -2.34506026      -0.00682114       0.31359009        6 
C       0.34431229       1.40709330      -0.26422771        6 
O      -3.51559774       0.13367121      -0.37086752        8 
O      -2.21552250       0.30862309       1.46311430        8 
O       1.04032523       2.06487716      -1.22557894        8 
O      -0.03016702       1.93697484       0.74903478        8 
C       1.38942160       3.42538772      -0.92467169        6 
C      -4.61205627       0.68637551       0.37940654        6 
C      -0.95287245      -2.04689429      -0.01007308        6 
C      -0.15017511      -2.87658634      -1.04157593        6 
C       1.26928101      -2.24789716      -0.89993613        6 
C       0.97752886      -1.09956370       0.09148034        6 
O       0.02369605      -1.70472935       0.97173512        8 
H      -1.75999976      -0.73648570      -1.59017619        1 
H       0.42567505      -0.05493414      -1.75156457        1 
H       2.01699223       3.47066146      -0.03265497        1 
H      -4.36422776       1.68796299       0.73453005        1 
H      -0.15110333      -3.93143457      -0.76378027        1 
H      -0.56083845      -2.79474113      -2.05006741        1 
H       1.97093301      -2.95055162      -0.44680152        1 
H       1.69557608      -1.89660265      -1.83895342        1 
H       1.93725415       3.78332395      -1.79377312        1 
H       0.49342760       4.02631964      -0.75975441        1 
H      -4.84850088       0.05363564       1.23673615        1 
H      -5.45015071       0.72100299      -0.31357453        1 
H      -1.78484439      -2.56396341       0.46407738        1 
C       2.14019481      -0.59212525       0.91519671        6 
O       3.09213794      -0.03189990       0.02800778        8 
H       2.57302991      -1.43190524       1.47744167        1 
H       1.78321217       0.15399988       1.63663153        1 
C       4.18021132       0.57646761       0.69628157        6 
H       4.84381862       0.97775701      -0.06997585        1 
H       4.73439349      -0.15048963       1.30638039        1 
H       3.84249423       1.39522534       1.34670833        1 
