36
Lattice="0.0 0.0 0.0 0.0 0.0 0.0 0.0 0.0 0.0" Properties=species:S:1:pos:R:3:Z:I:1 pbc="F F F"
C      -1.29310308      -0.83858160      -0.60994447        6 
C       0.08096581      -0.09129525      -0.69799897        6 
C      -2.37723442      -0.20397071       0.25405486        6 
C       0.10649995       1.36017433      -0.25718689        6 
O      -3.31143485       0.37728448      -0.53913919        8 
O      -2.42519025      -0.19431801       1.45375117        8 
O       1.10129996       2.01157944      -0.90080176        8 
O      -0.62011930       1.89785957       0.53966608        8 
C       1.28066949       3.39379750      -0.54808697        6 
C      -4.35323874       1.09013973       0.15215973        6 
C      -0.83161014      -2.16397755       0.06098207        6 
C       0.03569398      -2.98645974      -0.91895034        6 
C       1.39532552      -2.23282454      -0.82994259        6 
C       1.02281185      -1.06766288       0.11731219        6 
O       0.11890177      -1.69787283       1.02676914        8 
H      -1.70413146      -0.99453482      -1.60655322        1 
H       0.41658746      -0.08120742      -1.73451624        1 
H       1.51392010       3.49145919       0.51375028        1 
H      -3.91938143       1.86711507       0.78279727        1 
H       0.12663432      -4.01800222      -0.57622058        1 
H      -0.38301538      -3.00341499      -1.92770576        1 
H       2.16227526      -2.84847520      -0.35738741        1 
H       1.78075881      -1.88918795      -1.78913134        1 
H       2.11270768       3.74156746      -1.15628805        1 
H       0.37768730       3.96585665      -0.76736541        1 
H      -4.93862325       0.40778675       0.77105852        1 
H      -4.97478791       1.52571363      -0.62755973        1 
H      -1.62369883      -2.70857492       0.56881119        1 
C       2.16952408      -0.45272376       0.89102130        6 
O       3.17922900      -0.09049905      -0.03207744        8 
H       2.54322316      -1.19430791       1.61169413        1 
H       1.82014099       0.41959681       1.46093930        1 
C       4.19312865       0.70965257       0.54030529        6 
H       4.91043996       0.93327470      -0.24952338        1 
H       4.71008069       0.18634231       1.35721831        1 
H       3.78320208       1.65159204       0.93065369        1 
