36
Lattice="0.0 0.0 0.0 0.0 0.0 0.0 0.0 0.0 0.0" Properties=species:S:1:pos:R:3:Z:I:1 pbc="F F F"
C      -1.21433867      -0.70306620      -0.64911016        6 
C       0.18314907      -0.01356719      -0.68688133        6 
C      -2.39096662       0.24052300      -0.48700731        6 
C       0.22049546       1.32858836       0.02182805        6 
O      -3.31953700      -0.23580232       0.36167259        8 
O      -2.51140338       1.26818429      -1.10793748        8 
O       1.19673823       2.10946108      -0.48737782        8 
O      -0.49581590       1.66800666       0.93015082        8 
C       1.33738570       3.40693654       0.11810310        6 
C      -4.48131828       0.59468121       0.55248446        6 
C      -0.99752364      -1.84674458       0.38105128        6 
C      -0.32040647      -3.01708773      -0.35475647        6 
C       1.07777221      -2.39724637      -0.64390234        6 
C       1.00195653      -1.06489116       0.15471523        6 
O       0.07530985      -1.36360848       1.20622609        8 
H      -1.39577880      -1.14257246      -1.63628558        1 
H       0.58749708       0.09889674      -1.68944485        1 
H       1.56409961       3.31111308       1.18147447        1 
H      -5.01431996       0.72742714      -0.39033013        1 
H      -0.24186040      -3.88022949       0.30842040        1 
H      -0.85765594      -3.32440672      -1.25422071        1 
H       1.88566350      -3.01930644      -0.25678955        1 
H       1.27082941      -2.22554724      -1.70303788        1 
H       2.16058125       3.88434884      -0.40898482        1 
H       0.41817801       3.98250442      -0.00072099        1 
H      -4.18450900       1.56912813       0.94154668        1 
H      -5.10005020       0.06412989       1.27278582        1 
H      -1.85968439      -2.08127648       0.99647087        1 
C       2.31518768      -0.59945810       0.74728562        6 
O       3.22207749      -0.39701324      -0.31880665        8 
H       2.68520412      -1.36981792       1.43984744        1 
H       2.17266537       0.32341074       1.32525884        1 
C       4.42573068       0.22349249       0.08719685        6 
H       5.04803398       0.33062473      -0.80134323        1 
H       4.96191278      -0.38386458       0.83015009        1 
H       4.23553798       1.21792214       0.51415337        1 
