36
Lattice="0.0 0.0 0.0 0.0 0.0 0.0 0.0 0.0 0.0" Properties=species:S:1:pos:R:3:Z:I:1 pbc="F F F"
C      -1.01017397      -0.89227563      -0.69081123        6 
C       0.34469563      -0.11014836      -0.81167864        6 
C      -2.24038029      -0.01796120      -0.52949737        6 
C       0.28764169       1.37523814      -0.49776644        6 
O      -3.10594681      -0.50764004       0.37750574        8 
O      -2.45530936       0.97043932      -1.18847627        8 
O      -0.34408737       1.62687133       0.66686974        8 
O       0.78574220       2.23153976      -1.18506479        8 
C      -0.54846757       3.01393642       0.98459189        6 
C      -4.32849028       0.23492035       0.54884969        6 
C      -0.69193976      -1.91471973       0.43474917        6 
C       0.16263734      -3.05081756      -0.15862673        6 
C       1.51130137      -2.31109217      -0.39034301        6 
C       1.20959593      -0.91551735       0.22002321        6 
O       0.25938313      -1.21534379       1.25210212        8 
H      -1.19431871      -1.41940737      -1.63288064        1 
H       0.76723272      -0.17858978      -1.81085573        1 
H      -1.19186616       3.47371189       0.23243145        1 
H      -4.89592347       0.25509272      -0.38269862        1 
H       0.27072981      -3.85419164       0.57167420        1 
H      -0.26415627      -3.47574376      -1.06966688        1 
H       2.33009812      -2.78550508       0.15259128        1 
H       1.80231020      -2.24451522      -1.43826433        1 
H      -1.03113196       3.01973772       1.95951147        1 
H       0.40279377       3.54661157       1.02249891        1 
H      -4.10997384       1.25751664       0.85880216        1 
H      -4.88001560      -0.29203040       1.32415973        1 
H      -1.54489502      -2.21253490       1.03569476        1 
C       2.40830938      -0.19903684       0.80480351        6 
O       3.33645951      -0.00812945      -0.24589502        8 
H       2.83909732      -0.81533701       1.60738822        1 
H       2.10449391       0.75987428       1.24383890        1 
C       4.39916567       0.86196427       0.09595181        6 
H       5.04692388       0.93344280      -0.77764584        1 
H       4.98012666       0.47308741       0.94413615        1 
H       4.02511198       1.86340394       0.34713109        1 
