36
Lattice="0.0 0.0 0.0 0.0 0.0 0.0 0.0 0.0 0.0" Properties=species:S:1:pos:R:3:Z:I:1 pbc="F F F"
C      -0.92580396       1.09790537       0.44610155        6 
C       0.25332654       0.07461246       0.66053119        6 
C      -2.27295831       0.57082030      -0.01548988        6 
C       0.08424775      -1.37940014       0.24734593        6 
O      -2.96254001       0.07646076       1.03906798        8 
O      -2.70127825       0.59385887      -1.14004567        8 
O      -1.02600342      -1.62088887      -0.46142588        8 
O       0.90463565      -2.23203171       0.49676667        8 
C      -1.21615213      -2.96295816      -0.94216777        6 
C      -4.23016717      -0.52755022       0.73143197        6 
C      -0.30721126       2.07276351      -0.59527553        6 
C       0.61850882       3.05564283       0.13683666        6 
C       1.77805618       2.10293957       0.54143400        6 
C       1.37792999       0.78730048      -0.18804822        6 
O       0.62555009       1.24929852      -1.31492404        8 
H      -1.10957580       1.60633291       1.39457118        1 
H       0.55148214       0.03585156       1.70783094        1 
H      -1.32338964      -3.65502455      -0.10534615        1 
H      -4.08945300      -1.37586213       0.05914050        1 
H       0.96182151       3.83101014      -0.55024903        1 
H       0.13534045       3.54237523       0.98684170        1 
H       2.74197498       2.45455450       0.17192431        1 
H       1.87218871       1.95825367       1.61772916        1 
H      -2.12725018      -2.92626215      -1.53513921        1 
H      -0.37003939      -3.26897287      -1.55831079        1 
H      -4.89766101       0.19574090       0.26068045        1 
H      -4.63545679      -0.85887096       1.68516709        1 
H      -1.02605927       2.49567168      -1.29085750        1 
C       2.56100034      -0.03900278      -0.64741137        6 
O       3.35264855      -0.31687355       0.49231639        8 
H       3.12864111       0.54798706      -1.38451455        1 
H       2.23271673      -0.96355038      -1.13311281        1 
C       4.25179182      -1.39363957       0.29715171        6 
H       4.81756843      -1.50855080       1.22199332        1 
H       4.95065698      -1.18785723      -0.52620401        1 
H       3.70648922      -2.32205405       0.08874650        1 
