36
Lattice="0.0 0.0 0.0 0.0 0.0 0.0 0.0 0.0 0.0" Properties=species:S:1:pos:R:3:Z:I:1 pbc="F F F"
C      -1.16045780      -0.62909247      -0.60871705        6 
C       0.28342394      -0.02068914      -0.64611587        6 
C      -2.28517385       0.27817225      -0.14542173        6 
C       0.43442986       1.34099389       0.01641754        6 
O      -3.39769571      -0.45056485       0.09642119        8 
O      -2.24633511       1.47756202      -0.04148035        8 
O       0.61584799       2.29475766      -0.91938040        8 
O       0.40551847       1.56241480       1.20082761        8 
C       0.63837619       3.64573632      -0.42856515        6 
C      -4.56241693       0.28980697       0.50972110        6 
C      -0.94858965      -1.92817438       0.22242466        6 
C      -0.28250949      -2.98595696      -0.67788953        6 
C       1.14802880      -2.38764299      -0.81476354        6 
C       1.06195863      -1.14870361       0.11930868        6 
O       0.10995656      -1.56568474       1.11228977        8 
H      -1.45390602      -0.90177019      -1.62793371        1 
H       0.63710533       0.07569190      -1.66952400        1 
H       1.46269634       3.78712413       0.27234885        1 
H      -4.87457486       0.97931866      -0.27640351        1 
H      -0.26187212      -3.95004124      -0.16760788        1 
H      -0.79599250      -3.11637111      -1.63256574        1 
H       1.90735295      -3.07982792      -0.44790597        1 
H       1.41116443      -2.11498077      -1.83699642        1 
H       0.77157903       4.27254243      -1.30782033        1 
H      -0.30541097       3.87288496       0.06962169        1 
H      -4.35096002       0.85268953       1.41970387        1 
H      -5.33103235      -0.45846754       0.68996073        1 
H      -1.81792295      -2.25284125       0.78595636        1 
C       2.35545148      -0.74684240       0.79674315        6 
O       3.18765456      -0.16609724      -0.19581542        8 
H       2.83098162      -1.63695998       1.23342570        1 
H       2.14355573      -0.03370019       1.59933779        1 
C       4.39562292       0.34934495       0.33090514        6 
H       4.94485040       0.79402201      -0.49923600        1 
H       5.00718350      -0.44454516       0.78207849        1 
H       4.20001161       1.11857046       1.08990252        1 
