36
Lattice="0.0 0.0 0.0 0.0 0.0 0.0 0.0 0.0 0.0" Properties=species:S:1:pos:R:3:Z:I:1 pbc="F F F"
C      -1.26926611      -0.81506311      -0.53077556        6 
C       0.11877508      -0.10950181      -0.70542883        6 
C      -2.29439058      -0.02998000       0.26950197        6 
C       0.04408696       1.39948407      -0.51290112        6 
O      -3.46098174       0.04375846      -0.40767358        8 
O      -2.13868347       0.40461234       1.38232798        8 
O       1.21128153       1.96071640      -0.16274622        8 
O      -0.95309308       2.04244375      -0.74053619        8 
C       1.21010505       3.39786754      -0.05868137        6 
C      -4.51570207       0.77391938       0.24381561        6 
C      -0.84277922      -2.07369216       0.27751678        6 
C      -0.05846434      -3.03591276      -0.63883052        6 
C       1.31884525      -2.31626461      -0.71509506        6 
C       1.05524301      -1.04915161       0.14444415        6 
O       0.16658870      -1.55554244       1.15050581        8 
H      -1.71211645      -1.07639386      -1.48973160        1 
H       0.42124498      -0.19412133      -1.75395370        1 
H       0.49267008       3.72243388       0.69591545        1 
H      -4.20161814       1.80289193       0.42385525        1 
H       0.02888986      -4.01834218      -0.17263451        1 
H      -0.53555805      -3.16446790      -1.61237828        1 
H       2.10531831      -2.90979300      -0.24668990        1 
H       1.63960097      -2.07810528      -1.72911958        1 
H       2.22375459       3.66562605       0.23119966        1 
H       0.95333867       3.84759665      -1.01868414        1 
H      -4.77834124       0.30483420       1.19348986        1 
H      -5.35754269       0.74374152      -0.44469565        1 
H      -1.63867098      -2.52251105       0.86809877        1 
C       2.29125043      -0.48948377       0.81432753        6 
O       3.24050047      -0.19536650      -0.19606767        8 
H       2.68128694      -1.25461154       1.50127838        1 
H       2.04688758       0.40395442       1.39563153        1 
C       4.35060413       0.52920675       0.29131584        6 
H       5.01571308       0.70898226      -0.55383122        1 
H       4.89506909      -0.03554152       1.06173657        1 
H       4.03879060       1.49279642       0.71690862        1 
