36
Lattice="0.0 0.0 0.0 0.0 0.0 0.0 0.0 0.0 0.0" Properties=species:S:1:pos:R:3:Z:I:1 pbc="F F F"
C      -1.11664849      -0.67852254      -0.45291549        6 
C       0.27665315      -0.03465118      -0.71560805        6 
C      -2.33752977       0.21301140      -0.35893034        6 
C       0.46428557       1.43835331      -0.37637214        6 
O      -3.44518891      -0.56796769      -0.43040588        8 
O      -2.38843686       1.40758874      -0.21839778        8 
O       0.11367468       1.74484528       0.88002551        8 
O       0.99010260       2.22027670      -1.13458074        8 
C       0.19337255       3.13350168       1.23610669        6 
C      -4.70897576       0.11107570      -0.30846546        6 
C      -0.83428213      -1.60604380       0.78190701        6 
C      -0.25395616      -2.92147931       0.23512884        6 
C       1.11488473      -2.40785330      -0.30475829        6 
C       1.14264003      -0.94463603       0.23015415        6 
O       0.31132212      -1.01570984       1.39904273        8 
H      -1.34382893      -1.33143010      -1.29904020        1 
H       0.57917081      -0.13778381      -1.75466443        1 
H      -0.49433971       3.71361102       0.61873194        1 
H      -4.83030597       0.83831483      -1.11262348        1 
H      -0.11542019      -3.63404398       1.05002154        1 
H      -0.88231745      -3.38539827      -0.52696576        1 
H       1.95127061      -2.97213000       0.10926078        1 
H       1.19708264      -2.44765219      -1.39131030        1 
H      -0.10196755       3.18008384       2.28202078        1 
H       1.20868010       3.51052670       1.10322192        1 
H      -4.77616799       0.62392615       0.65229636        1 
H      -5.46432910      -0.66843047      -0.38039212        1 
H      -1.64660537      -1.68877637       1.49951731        1 
C       2.51902281      -0.42742293       0.59144458        6 
O       3.29845979      -0.44832144      -0.59031963        8 
H       2.95657464      -1.07446496       1.36573787        1 
H       2.45155353       0.58793727       1.00094624        1 
C       4.51719586       0.26133683      -0.46754624        6 
H       5.03164122       0.18111123      -1.42510899        1 
H       5.15426262      -0.16609736       0.31958418        1 
H       4.33531595       1.32111807      -0.24563089        1 
