36
Lattice="0.0 0.0 0.0 0.0 0.0 0.0 0.0 0.0 0.0" Properties=species:S:1:pos:R:3:Z:I:1 pbc="F F F"
C      -1.17970486      -0.92933559      -0.32816588        6 
C       0.07281817      -0.01151372      -0.54349339        6 
C      -2.51071969      -0.27522833      -0.00776179        6 
C      -0.06706591       1.35468113       0.13130301        6 
O      -2.95833518       0.41195222      -1.07913386        8 
O      -3.15838661      -0.46140146       0.99182980        8 
O       1.11304059       1.99231422       0.24706095        8 
O      -1.11287965       1.88327624       0.41951543        8 
C       1.05714869       3.32725251       0.78555907        6 
C      -4.17255875       1.15546465      -0.88119317        6 
C      -0.67027744      -1.95476564       0.71922963        6 
C       0.01346601      -3.08765133      -0.05618454        6 
C       1.19659330      -2.29603524      -0.68043679        6 
C       1.14820202      -0.95062840       0.11584501        6 
O       0.45981144      -1.30071326       1.32837717        8 
H      -1.36711574      -1.44278130      -1.27565578        1 
H       0.28068371       0.17531324      -1.59803686        1 
H       0.64087365       3.31346528       1.79365999        1 
H      -4.02407455       1.89932912      -0.09704951        1 
H       0.36601881      -3.85761261       0.63237107        1 
H      -0.63901359      -3.55570720      -0.79596169        1 
H       2.15408527      -2.79312747      -0.52435682        1 
H       1.08594490      -2.13255516      -1.75335231        1 
H       2.08794082       3.67485160       0.79926279        1 
H       0.44312138       3.96781355       0.15110328        1 
H      -4.99200473       0.49018224      -0.60474674        1 
H      -4.37657828       1.63935357      -1.83411498        1 
H      -1.39729615      -2.22167780       1.48033212        1 
C       2.52885698      -0.42074265       0.44618175        6 
O       3.14637341      -0.05234087      -0.77464318        8 
H       3.09418400      -1.22561421       0.93936032        1 
H       2.47243899       0.42787065       1.13139840        1 
C       4.37399552       0.62242500      -0.59092394        6 
H       4.76589524       0.85506436      -1.58141806        1 
H       5.10288146      -0.00283054      -0.05580571        1 
H       4.23203788       1.55738181      -0.03164439        1 
