36
Lattice="0.0 0.0 0.0 0.0 0.0 0.0 0.0 0.0 0.0" Properties=species:S:1:pos:R:3:Z:I:1 pbc="F F F"
C      -0.86799977       1.17956956       0.53142939        6 
C       0.27284515       0.08080795       0.61746710        6 
C      -2.08990282       0.80290559      -0.29435329        6 
C      -0.12365087      -1.28825077       0.09231129        6 
O      -2.94706863       0.04999124       0.42786115        8 
O      -2.30752904       1.14889667      -1.42789315        8 
O      -0.89226826      -1.91226027       1.01057776        8 
O       0.22534919      -1.81504905      -0.93481789        8 
C      -1.36143299      -3.22393960       0.65634542        6 
C      -4.12848118      -0.39760742      -0.26180538        6 
C      -0.08624316       2.33878354      -0.13266074        6 
C       0.89061411       2.95229641       0.88984082        6 
C       2.00055037       1.86239920       0.93057297        6 
C       1.45193190       0.82238311      -0.08516995        6 
O       0.78422957       1.65357839      -1.04417034        8 
H      -1.21881014       1.42683949       1.53395891        1 
H       0.50833477      -0.08732991       1.66792986        1 
H      -0.52114439      -3.90387944       0.50698640        1 
H      -3.85649619      -1.01632432      -1.11879295        1 
H       1.27729587       3.90261053       0.51915915        1 
H       0.42392630       3.13404110       1.86048617        1 
H       2.95472374       2.25259886       0.57255602        1 
H       2.16384384       1.43520458       1.92015250        1 
H      -1.97328581      -3.54926440       1.49479182        1 
H      -1.95458258      -3.18488794      -0.25904983        1 
H      -4.71650435       0.45308428      -0.60933612        1 
H      -4.68743494      -0.97805769       0.46891746        1 
H      -0.70945808       3.03579111      -0.68592428        1 
C       2.50759139      -0.02542048      -0.76334805        6 
O       3.03217616      -0.89795777       0.22765444        8 
H       3.29586835       0.62949296      -1.16131433        1 
H       2.06411812      -0.59017550      -1.58613280        1 
C       3.86862849      -1.90379784      -0.31276279        6 
H       4.20683658      -2.52251065       0.51902828        1 
H       4.74551985      -1.47055599      -0.81448449        1 
H       3.31982705      -2.52719992      -1.03029219        1 
