36
Lattice="0.0 0.0 0.0 0.0 0.0 0.0 0.0 0.0 0.0" Properties=species:S:1:pos:R:3:Z:I:1 pbc="F F F"
C      -1.22810859      -0.59173501      -0.51952081        6 
C       0.18616841       0.04173134      -0.60661800        6 
C      -2.40122469       0.35184824      -0.36037118        6 
C       0.34301621       1.35233775       0.14914340        6 
O      -3.51263509      -0.34067125      -0.02157282        8 
O      -2.38939608       1.54158372      -0.54547997        8 
O       1.18295535       2.17743134      -0.51622880        8 
O      -0.16427917       1.63048107       1.20446416        8 
C       1.42163951       3.45215172       0.10560766        6 
C      -4.71813755       0.43384175       0.12682271        6 
C      -1.02709454      -1.75161085       0.50582184        6 
C      -0.46429911      -2.95532157      -0.27004170        6 
C       0.93743480      -2.39820562      -0.65999539        6 
C       0.99256349      -1.07562426       0.15913189        6 
O       0.11736867      -1.33920767       1.26411171        8 
H      -1.43840356      -1.04955350      -1.49396553        1 
H       0.53797175       0.17016743      -1.62682909        1 
H       1.87885576       3.32077115       1.08823701        1 
H      -4.98159779       0.91364740      -0.81718581        1 
H      -0.37753473      -3.81832728       0.39226763        1 
H      -1.07772685      -3.24010173      -1.12721435        1 
H       1.74140746      -3.06675146      -0.34978163        1 
H       1.05279722      -2.21855648      -1.72939589        1 
H       2.09793291       3.97941885      -0.56387174        1 
H       0.48460353       3.99946034       0.21837959        1 
H      -4.58505999       1.19744478       0.89410710        1 
H      -5.48542019      -0.27872215       0.42156558        1 
H      -1.86806341      -1.93638491       1.16695729        1 
C       2.36673903      -0.69522358       0.66772943        6 
O       3.19968556      -0.49788702      -0.45938571        8 
H       2.75003735      -1.50675556       1.30352278        1 
H       2.31111954       0.21197590       1.28405486        1 
C       4.46888532       0.02853601      -0.12548466        6 
H       5.02713399       0.13613904      -1.05553259        1 
H       5.01898030      -0.64304824       0.54870416        1 
H       4.37637054       1.01269514       0.35395532        1 
