36
Lattice="0.0 0.0 0.0 0.0 0.0 0.0 0.0 0.0 0.0" Properties=species:S:1:pos:R:3:Z:I:1 pbc="F F F"
C      -1.28887048      -1.00868502      -0.73352762        6 
C       0.10692222      -0.31528020      -0.86183257        6 
C      -2.37524967      -0.31762604       0.08637250        6 
C       0.01591093       1.19356292      -1.03210563        6 
O      -2.04341567       0.90297135       0.52998785        8 
O      -3.40931773      -0.87054921       0.37779415        8 
O       0.75447608       1.91989479      -0.17937070        8 
O      -0.66952492       1.68351519      -1.89806461        8 
C       0.65891935       3.34686942      -0.33770123        6 
C      -3.00945382       1.55821703       1.37215793        6 
C      -0.87443818      -2.25179716       0.09919919        6 
C       0.12285653      -3.14075329      -0.67463699        6 
C       1.45626485      -2.36937185      -0.46315785        6 
C       0.94493019      -1.08364441       0.23003851        6 
O      -0.06120655      -1.62484836       1.10952393        8 
H      -1.72081021      -1.26560166      -1.70071419        1 
H       0.50486589      -0.61247396      -1.83601887        1 
H      -0.37747168       3.67035108      -0.23148623        1 
H      -3.20189381       0.95972204       2.26351158        1 
H       0.16167079      -4.14073748      -0.24116988        1 
H      -0.15330151      -3.24308902      -1.72650410        1 
H       2.11874999      -2.90497116       0.21908573        1 
H       2.00615332      -2.16536510      -1.38149892        1 
H       1.27803174       3.76823591       0.45159720        1 
H       1.02943934       3.64847109      -1.31838889        1 
H      -3.94278473       1.71102131       0.82884410        1 
H      -2.55959794       2.51191033       1.63880169        1 
H      -1.71170006      -2.76561181       0.56243429        1 
C       1.98538569      -0.34412470       1.04107088        6 
O       3.02049191       0.03904840       0.15074733        8 
H       2.37195794      -1.02137795       1.81666318        1 
H       1.54232123       0.52908316       1.52744343        1 
C       3.93150415       0.95519851       0.72247721        6 
H       4.68003338       1.18232849      -0.03721088        1 
H       4.43291728       0.52929038       1.60312768        1 
H       3.42485772       1.88381211       1.01806008        1 
