36
Lattice="0.0 0.0 0.0 0.0 0.0 0.0 0.0 0.0 0.0" Properties=species:S:1:pos:R:3:Z:I:1 pbc="F F F"
C      -0.82971669       1.02624240       0.71524275        6 
C       0.34810311      -0.02786233       0.72481279        6 
C      -2.25272717       0.53105160       0.52385093        6 
C       0.07400498      -1.44869297       0.23513794        6 
O      -2.62416606       0.53518773      -0.77208530        8 
O      -2.98408522       0.21216521       1.42875668        8 
O      -1.22629546      -1.77705266       0.27984617        8 
O       0.93031382      -2.23279896      -0.09660576        8 
C      -1.57107592      -3.11857448      -0.10959504        6 
C      -3.94291909       0.04040864      -1.05310197        6 
C      -0.32619703       2.04563436      -0.35000085        6 
C       0.65970893       3.00257393       0.33589248        6 
C       1.83377412       2.02607645       0.62073518        6 
C       1.39090732       0.74792003      -0.15561022        6 
O       0.53842542       1.26602925      -1.19033519        8 
H      -0.85646310       1.49560711       1.69977929        1 
H       0.72868295      -0.15864309       1.74012723        1 
H      -1.00156682      -3.84372163       0.47227013        1 
H      -4.69629083       0.62456811      -0.52256708        1 
H       0.95763576       3.79287769      -0.35540499        1 
H       0.24815568       3.46752374       1.23397390        1 
H       2.77848495       2.39711709       0.22251346        1 
H       1.98399989       1.82449635       1.68194231        1 
H      -2.63510799      -3.21192281       0.09548031        1 
H      -1.36737333      -3.26569394      -1.17144726        1 
H      -4.02484935      -1.00550812      -0.75246771        1 
H      -4.06736736       0.13908995      -2.12942453        1 
H      -1.10700445       2.49784248      -0.95367037        1 
C       2.55296210      -0.00478420      -0.77061465        6 
O       3.38034477      -0.44202213       0.29435909        8 
H       3.10023678       0.68786169      -1.42705475        1 
H       2.20150302      -0.84787029      -1.36816389        1 
C       4.27146928      -1.47570962      -0.08204023        6 
H       4.85376539      -1.73308077       0.80337587        1 
H       4.95840881      -1.14742877      -0.87542970        1 
H       3.71927652      -2.35934623      -0.42305131        1 
