36
Lattice="0.0 0.0 0.0 0.0 0.0 0.0 0.0 0.0 0.0" Properties=species:S:1:pos:R:3:Z:I:1 pbc="F F F"
C      -0.81267462       1.04141395       0.36818144        6 
C       0.27893811      -0.08947242       0.50088474        6 
C      -2.23689518       0.66398518       0.01964413        6 
C      -0.02073528      -1.40108587      -0.22901596        6 
O      -2.87425863       0.18239338       1.10720074        8 
O      -2.78993807       0.89487404      -1.02785947        8 
O      -1.28830765      -1.80394619      -0.00604444        8 
O       0.75443268      -2.05411613      -0.88075061        8 
C      -1.68394668      -3.03803893      -0.63386071        6 
C      -4.23692822      -0.22510151       0.90899954        6 
C      -0.12372683       2.03789013      -0.61032964        6 
C       0.74050216       2.97324872       0.24566119        6 
C       1.77127031       1.94375420       0.78952486        6 
C       1.49039701       0.69068381      -0.10246415        6 
O       0.87430996       1.24804067      -1.27724900        8 
H      -0.89898702       1.50499297       1.35341890        1 
H       0.43709812      -0.35312730       1.54836158        1 
H      -1.04942907      -3.85849428      -0.29639215        1 
H      -4.28949222      -1.02300833       0.16584232        1 
H       1.21903136       3.72384636      -0.38543358        1 
H       0.17812615       3.48592094       1.02902538        1 
H       2.79903668       2.27948000       0.65126911        1 
H       1.63910136       1.72347650       1.84995811        1 
H      -2.71494871      -3.19947865      -0.32698537        1 
H      -1.61538593      -2.95000630      -1.71877342        1 
H      -4.84689230       0.61510501       0.57332214        1 
H      -4.57795315      -0.58385118       1.87778439        1 
H      -0.78846671       2.48638159      -1.34281273        1 
C       2.74467295      -0.07341400      -0.47909247        6 
O       3.20000531      -0.73331766       0.69248063        8 
H       3.49873641       0.64363080      -0.83665203        1 
H       2.53222141      -0.78997888      -1.27295875        1 
C       4.24636949      -1.64987581       0.43086265        6 
H       4.51924514      -2.10757115       1.38222862        1 
H       5.12802296      -1.14403923       0.01192668        1 
H       3.91867548      -2.43083679      -0.26726009        1 
