36
Lattice="0.0 0.0 0.0 0.0 0.0 0.0 0.0 0.0 0.0" Properties=species:S:1:pos:R:3:Z:I:1 pbc="F F F"
C      -1.23276422      -0.56878248      -0.47538967        6 
C       0.17114635       0.07232892      -0.59974276        6 
C      -2.42768172       0.35842743      -0.42179533        6 
C       0.33107926       1.37460060       0.17010289        6 
O      -3.52853473      -0.32863939      -0.03652118        8 
O      -2.44050030       1.52551311      -0.71558706        8 
O       1.35284156       2.09937257      -0.34511370        8 
O      -0.33389822       1.73825076       1.10388148        8 
C       1.60677668       3.36010353       0.29884868        6 
C      -4.75516854       0.42413928       0.01634545        6 
C      -1.02567086      -1.66422662       0.61831985        6 
C      -0.50960783      -2.91998431      -0.10298579        6 
C       0.87342454      -2.39460218      -0.59451558        6 
C       0.99117855      -1.03963298       0.16588074        6 
O       0.15392213      -1.23620603       1.31474801        8 
H      -1.41783442      -1.09694140      -1.41986462        1 
H       0.50986262       0.20459947      -1.62414106        1 
H       1.87701779       3.20918781       1.34581561        1 
H      -5.01849412       0.79418875      -0.97600756        1 
H      -0.39244829      -3.73940074       0.60805151        1 
H      -1.16428714      -3.25217105      -0.91102501        1 
H       1.68824038      -3.05919590      -0.30544654        1 
H       0.92936586      -2.25901794      -1.67518331        1 
H       2.43417914       3.80471090      -0.25023695        1 
H       0.72290402       3.99737767       0.24736068        1 
H      -4.65309632       1.26808350       0.69965695        1 
H      -5.50807668      -0.27383409       0.37614898        1 
H      -1.84820909      -1.79008997       1.31528765        1 
C       2.39471186      -0.68436488       0.60744961        6 
O       3.19466762      -0.57107184      -0.55432427        8 
H       2.77019209      -1.48010489       1.26753146        1 
H       2.39823492       0.25228752       1.17926315        1 
C       4.47973679      -0.04402263      -0.28956649        6 
H       5.00867050       0.00759966      -1.24129676        1 
H       5.04439399      -0.68627327       0.40115650        1 
H       4.41098342       0.96447552       0.13999840        1 
