36
Lattice="0.0 0.0 0.0 0.0 0.0 0.0 0.0 0.0 0.0" Properties=species:S:1:pos:R:3:Z:I:1 pbc="F F F"
C      -1.26238364      -0.79502979      -0.87667085        6 
C       0.15925687      -0.11977686      -0.81434005        6 
C      -2.40405884       0.02343981      -0.28962470        6 
C       0.18512720       1.32232289      -0.35025860        6 
O      -2.52785064      -0.11251404       1.03393791        8 
O      -3.16783759       0.66288770      -0.97758589        8 
O       0.85430334       2.08915351      -1.23445728        8 
O      -0.32005695       1.76020414       0.65579830        8 
C       0.96990271       3.48250622      -0.89687994        6 
C      -3.52751720       0.70533539       1.66482303        6 
C      -0.97480079      -2.11233642      -0.10999252        6 
C      -0.05173788      -3.01782149      -0.95994788        6 
C       1.33207767      -2.33556820      -0.73934056        6 
C       0.92549315      -1.12415329       0.13294901        6 
O      -0.11265046      -1.67566289       0.94694718        8 
H      -1.54105180      -0.97234699      -1.91489153        1 
H       0.61551621      -0.13517050      -1.80115338        1 
H       1.51395495       3.60230502       0.04163531        1 
H      -4.51490120       0.49979839       1.24840366        1 
H      -0.06074550      -4.03860151      -0.57544512        1 
H      -0.35345720      -3.05082286      -2.00902077        1 
H       2.00822773      -2.97962277      -0.17353791        1 
H       1.83488301      -2.04384468      -1.66062099        1 
H       1.52107109       3.93435887      -1.71848696        1 
H      -0.01837808       3.93432570      -0.80000060        1 
H      -3.28239749       1.75894228       1.52467648        1 
H      -3.48970229       0.44286803       2.71956016        1 
H      -1.85354704      -2.59373683       0.31149636        1 
C       1.99707398      -0.54182933       1.02742567        6 
O       2.99405138       0.02662815       0.19574347        8 
H       2.41684688      -1.34185403       1.65375069        1 
H       1.55490622       0.21529779       1.68667730        1 
C       4.01217061       0.68319453       0.92683389        6 
H       4.72056674       1.08516196       0.20222391        1 
H       4.53778251      -0.01271154       1.59539158        1 
H       3.60315247       1.50703480       1.52815415        1 
