36
Lattice="0.0 0.0 0.0 0.0 0.0 0.0 0.0 0.0 0.0" Properties=species:S:1:pos:R:3:Z:I:1 pbc="F F F"
C      -1.12964416      -0.70426963      -0.36548734        6 
C       0.23275224      -0.00301643      -0.68216770        6 
C      -2.39565213       0.11005425      -0.17475500        6 
C       0.42955203       1.47012020      -0.35370422        6 
O      -3.41389073      -0.52658670      -0.81590895        8 
O      -2.56346530       1.11910401       0.45844918        8 
O       0.05711269       1.79720047       0.88542559        8 
O       0.99241779       2.23220316      -1.10874471        8 
C       0.20355905       3.17623473       1.25679394        6 
C      -4.71531689       0.07252603      -0.68179110        6 
C      -0.75210114      -1.61111656       0.86470132        6 
C      -0.15692340      -2.90965393       0.29600674        6 
C       1.16074544      -2.35167330      -0.31937436        6 
C       1.17127697      -0.88884472       0.21795264        6 
O       0.40123293      -0.98046128       1.42420605        8 
H      -1.35306459      -1.36060414      -1.20564819        1 
H       0.48926481      -0.10225124      -1.73415903        1 
H      -0.38083542       3.81064704       0.58876375        1 
H      -4.70952807       1.09042332      -1.07457700        1 
H       0.04880253      -3.61070492       1.10685274        1 
H      -0.80769435      -3.40095874      -0.42929263        1 
H       2.03874801      -2.88841455       0.04129441        1 
H       1.17895373      -2.38627600      -1.40895255        1 
H      -0.17806128       3.24039879       2.27299970        1 
H       1.25173985       3.47837760       1.21545377        1 
H      -5.02036181       0.09555763       0.36583341        1 
H      -5.38541101      -0.55832813      -1.26192605        1 
H      -1.52290037      -1.71287589       1.62528839        1 
C       2.54891727      -0.33333303       0.51192979        6 
O       3.27312462      -0.34463645      -0.70332906        8 
H       3.03739824      -0.96210078       1.27065326        1 
H       2.47595898       0.68374164       0.91699103        1 
C       4.48109783       0.39111526      -0.63920642        6 
H       4.95532200       0.31288089      -1.61738035        1 
H       5.15998779      -0.01618233       0.12337481        1 
H       4.28665903       1.44878967      -0.41821160        1 
