36
Lattice="0.0 0.0 0.0 0.0 0.0 0.0 0.0 0.0 0.0" Properties=species:S:1:pos:R:3:Z:I:1 pbc="F F F"
C      -1.14808244      -0.61823201      -0.70215946        6 
C       0.31523746      -0.04067837      -0.67981821        6 
C      -2.22290210       0.24710100      -0.05938805        6 
C       0.44893180       1.35898589      -0.10227727        6 
O      -3.25556387      -0.50366350       0.37563864        8 
O      -2.21654645       1.45133402      -0.00423792        8 
O       0.42498534       2.26632379      -1.09847917        8 
O       0.59522713       1.64371655       1.06046522        8 
C       0.39396067       3.64289950      -0.68635886        6 
C      -4.36734753       0.21743822       0.94217825        6 
C      -0.93578593      -1.99369427      -0.01735903        6 
C      -0.16998560      -2.93333983      -0.97277996        6 
C       1.26919623      -2.35225212      -0.87249241        6 
C       1.05782173      -1.17147154       0.10983141        6 
O       0.03796958      -1.68206344       0.98704227        8 
H      -1.48379269      -0.74626082      -1.73594746        1 
H       0.69539045       0.01792407      -1.69794872        1 
H       1.28055463       3.88965985      -0.10019234        1 
H      -4.78798458       0.90655828       0.20852084        1 
H      -0.21288665      -3.96018164      -0.60651991        1 
H      -0.57658252      -2.92020201      -1.98633178        1 
H       1.95857058      -3.07420479      -0.43179944        1 
H       1.68447183      -2.03022160      -1.82710710        1 
H       0.37143058       4.22112386      -1.60780728        1 
H      -0.50239691       3.82843081      -0.09275323        1 
H      -4.04543541       0.77774792       1.82072006        1 
H      -5.09421223      -0.54359993       1.21698185        1 
H      -1.82570510      -2.40684225       0.44586863        1 
C       2.27736445      -0.76779501       0.91169905        6 
O       3.17128942      -0.12957713       0.01135484        8 
H       2.74047379      -1.66341928       1.35051318        1 
H       1.98192778      -0.08838230       1.71526753        1 
C       4.27172156       0.47613722       0.66341227        6 
H       4.88410707       0.94451770      -0.10771163        1 
H       4.87891074      -0.26655451       1.19986774        1 
H       3.93723863       1.24227143       1.37540587        1 
