36
Lattice="0.0 0.0 0.0 0.0 0.0 0.0 0.0 0.0 0.0" Properties=species:S:1:pos:R:3:Z:I:1 pbc="F F F"
C      -1.17552900      -0.75936381      -0.71441847        6 
C       0.28795787      -0.20091016      -0.85113255        6 
C      -2.23095454       0.20385602      -0.18583955        6 
C       0.42453428       1.31332856      -0.78951430        6 
O      -3.28667103      -0.47863253       0.30990119        8 
O      -2.20307872       1.40615161      -0.25258804        8 
O       0.53285909       1.79379503       0.46192125        8 
O       0.42381687       2.00569088      -1.77690977        8 
C       0.49543159       3.22597524       0.58165247        6 
C      -4.39412871       0.31742259       0.77240878        6 
C      -0.93782989      -1.96452657       0.23387495        6 
C      -0.14333666      -3.06685658      -0.49824951        6 
C       1.29033463      -2.46503671      -0.48555951        6 
C       1.04059007      -1.09660445       0.19719252        6 
O       0.01846410      -1.42244209       1.15659354        8 
H      -1.55195654      -1.08730841      -1.68749541        1 
H       0.65262621      -0.43946077      -1.84847647        1 
H      -0.46119466       3.59789906       0.21257037        1 
H      -4.78861187       0.93059138      -0.03915830        1 
H      -0.18949272      -4.00169971       0.06179976        1 
H      -0.52649662      -3.25756180      -1.50296148        1 
H       1.96432170      -3.06200965       0.13167103        1 
H       1.73734528      -2.36398256      -1.47434784        1 
H       0.60379085       3.43202204       1.64477639        1 
H       1.30913969       3.68062102       0.01473876        1 
H      -4.08000404       0.96440631       1.59252852        1 
H      -5.14053556      -0.39696818       1.11266459        1 
H      -1.82229871      -2.29432706       0.76883988        1 
C       2.24069276      -0.50415133       0.90472178        6 
O       3.12787280      -0.03509844      -0.09826619        8 
H       2.72086368      -1.28068811       1.51726147        1 
H       1.92278693       0.31339421       1.55701124        1 
C       4.23087268       0.67687070       0.42800232        6 
H       4.83200084       1.00989638      -0.41811640        1 
H       4.84713675       0.04052001       1.07867675        1 
H       3.89878570       1.55244440       1.00215661        1 
