36
Lattice="0.0 0.0 0.0 0.0 0.0 0.0 0.0 0.0 0.0" Properties=species:S:1:pos:R:3:Z:I:1 pbc="F F F"
C      -1.07600350      -1.06096558      -0.37134160        6 
C       0.16310256      -0.11331860      -0.64545563        6 
C      -2.31861579      -0.35401387       0.13005526        6 
C      -0.16468596       1.34272959      -0.32565089        6 
O      -3.22341624      -0.22484166      -0.85730312        8 
O      -2.50756430      -0.00282199       1.26949263        8 
O       0.60941844       1.91613593       0.60296830        8 
O      -1.07768856       1.91985256      -0.86988227        8 
C       0.26916266       3.27072138       0.95869379        6 
C      -4.40844079       0.52570027      -0.53538532        6 
C      -0.47426561      -2.04813153       0.66985771        6 
C       0.34011501      -3.10334021      -0.09544858        6 
C       1.52423535      -2.22849635      -0.59213573        6 
C       1.26443546      -0.87751427       0.14961292        6 
O       0.54814477      -1.28542869       1.32545035        8 
H      -1.34817738      -1.57687419      -1.29104426        1 
H       0.38690590      -0.11114772      -1.71280898        1 
H      -0.74952550       3.31124606       1.34518740        1 
H      -4.14010189       1.55840128      -0.30786182        1 
H       0.67978696      -3.88292569       0.58869285        1 
H      -0.22471288      -3.57618014      -0.90135515        1 
H       2.48709512      -2.63957298      -0.28721073        1 
H       1.54808859      -2.10185641      -1.67514574        1 
H       0.98390311       3.55258941       1.72874551        1 
H       0.35653308       3.92567564       0.09095306        1 
H      -4.92379456       0.08369067       0.31849145        1 
H      -5.03053886       0.48119164      -1.42651734        1 
H      -1.18227008      -2.41487208       1.40869040        1 
C       2.53770830      -0.15054566       0.53492742        6 
O       3.09430150       0.37761747      -0.65953597        8 
H       3.22970282      -0.86872337       0.99834807        1 
H       2.32642490       0.64342800       1.25295187        1 
C       4.26946971       1.13058368      -0.43258204        6 
H       4.61374210       1.49189501      -1.40199402        1 
H       5.05902476       0.51554008       0.02174451        1 
H       4.07221899       1.98992838       0.22319298        1 
