36
Lattice="0.0 0.0 0.0 0.0 0.0 0.0 0.0 0.0 0.0" Properties=species:S:1:pos:R:3:Z:I:1 pbc="F F F"
C      -0.80998011       1.09781847       0.42430680        6 
C       0.29079713      -0.03801347       0.51231181        6 
C      -2.18686516       0.71210486      -0.07800111        6 
C      -0.06546227      -1.33088414      -0.21830272        6 
O      -2.91901664       0.16530072       0.91264948        8 
O      -2.63188647       0.96479022      -1.17130112        8 
O      -1.11898840      -1.92272488       0.38586634        8 
O       0.50435193      -1.82692375      -1.15644593        8 
C      -1.56571641      -3.16322016      -0.19066343        6 
C      -4.24139774      -0.26971031       0.55634777        6 
C      -0.08504527       2.16543188      -0.44149658        6 
C       0.81624622       2.98640426       0.49421701        6 
C       1.86248888       1.90294057       0.88044923        6 
C       1.49977629       0.73734148      -0.09037803        6 
O       0.87497686       1.41076790      -1.19541963        8 
H      -0.97526636       1.47486164       1.43530935        1 
H       0.45944265      -0.31578821       1.55276923        1 
H      -0.77081617      -3.90978578      -0.15607754        1 
H      -4.19163267      -1.04321225      -0.21248929        1 
H       1.27744970       3.80668599      -0.05840757        1 
H       0.28245044       3.40601331       1.34945285        1 
H       2.88317189       2.23860032       0.69521514        1 
H       1.80105091       1.59560085       1.92554123        1 
H      -2.41073726      -3.47618100       0.41895956        1 
H      -1.87175620      -3.01346232      -1.22730216        1 
H      -4.83609075       0.56587295       0.18414488        1 
H      -4.67175688      -0.67022046       1.47158711        1 
H      -0.73452332       2.71092956      -1.12008093        1 
C       2.69336109      -0.06599400      -0.56958405        6 
O       3.11803554      -0.87505067       0.51886606        8 
H       3.49357594       0.62544695      -0.87162665        1 
H       2.41241893      -0.68119150      -1.42554521        1 
C       4.11346176      -1.81000844       0.14777817        6 
H       4.36926644      -2.38027229       1.04141919        1 
H       5.01681509      -1.30750199      -0.22597482        1 
H       3.74290749      -2.49539343      -0.62588273        1 
