36
Lattice="0.0 0.0 0.0 0.0 0.0 0.0 0.0 0.0 0.0" Properties=species:S:1:pos:R:3:Z:I:1 pbc="F F F"
C      -1.00660106       1.00834515       0.81267212        6 
C       0.23895789       0.07703534       0.79369922        6 
C      -2.23479185       0.61358688       0.00960338        6 
C       0.03224309      -1.42241387       0.65841151        6 
O      -1.94490447      -0.06580713      -1.11210229        8 
O      -3.34737804       0.99762982       0.28772608        8 
O      -1.24941689      -1.77540565       0.88766568        8 
O       0.92453238      -2.23190089       0.57858918        8 
C      -1.52461145      -3.18588799       0.94553205        6 
C      -3.05329396      -0.37647553      -1.97145578        6 
C      -0.39492279       2.25517970       0.09460397        6 
C       0.70463252       2.89809651       0.97099882        6 
C       1.90417443       1.94025255       0.70751203        6 
C       1.22839337       0.84851608      -0.15684745        6 
O       0.34576343       1.64291974      -0.96874403        8 
H      -1.35190093       1.23670661       1.81903098        1 
H       0.67869409       0.11422614       1.79673122        1 
H      -0.93792404      -3.65796990       1.73484952        1 
H      -3.55636997       0.53633055      -2.29364841        1 
H       0.91721010       3.91258918       0.63155067        1 
H       0.41489969       2.95060569       2.02283541        1 
H       2.68398275       2.43171057       0.12401891        1 
H       2.36082684       1.53836227       1.61117905        1 
H      -2.58875341      -3.26273395       1.15757985        1 
H      -1.28794282      -3.65778505      -0.00932334        1 
H      -3.76999561      -1.01696672      -1.45396635        1 
H      -2.62120454      -0.89631151      -2.82389497        1 
H      -1.13315121       2.94051392      -0.31671598        1 
C       2.16404119       0.04380111      -1.03430259        6 
O       3.24311743      -0.39018978      -0.22687193        8 
H       2.52123534       0.69185052      -1.84774805        1 
H       1.63849286      -0.80737914      -1.48062548        1 
C       3.93324086      -1.50472417      -0.76140242        6 
H       4.74576387      -1.73569469      -0.07190560        1 
H       4.35771408      -1.27847930      -1.74997876        1 
H       3.26800664      -2.37283864      -0.83831932        1 
