36
Lattice="0.0 0.0 0.0 0.0 0.0 0.0 0.0 0.0 0.0" Properties=species:S:1:pos:R:3:Z:I:1 pbc="F F F"
C      -1.21453366      -0.56430707      -0.43585428        6 
C       0.16777087       0.11264447      -0.59656863        6 
C      -2.45039997       0.30517770      -0.50727471        6 
C       0.28455679       1.42480219       0.17312227        6 
O      -3.51412319      -0.35111410       0.01299336        8 
O      -2.51986331       1.39983170      -1.00196729        8 
O       1.45917593       2.03726657      -0.11174185        8 
O      -0.55610383       1.91956874       0.87638411        8 
C       1.65971285       3.31826217       0.51121448        6 
C      -4.77201425       0.34804244      -0.04276357        6 
C      -0.98428061      -1.57223311       0.73512623        6 
C      -0.49453692      -2.87709073       0.08997495        6 
C       0.84620386      -2.37196919      -0.52368335        6 
C       1.01715171      -0.98163271       0.16722399        6 
O       0.22385666      -1.10682914       1.36129553        8 
H      -1.35115489      -1.17354075      -1.33972345        1 
H       0.48662660       0.25643659      -1.62639680        1 
H       1.66073401       3.22037173       1.59832444        1 
H      -5.05372763       0.54607232      -1.07827994        1 
H      -0.32073261      -3.63373939       0.85685761        1 
H      -1.18997540      -3.28098126      -0.64874179        1 
H       1.68422614      -3.02285978      -0.27414285        1 
H       0.81710523      -2.28087551      -1.61040227        1 
H       2.62828858       3.66463130       0.15647475        1 
H       0.87097520       4.01172426       0.21610090        1 
H      -4.70405362       1.29242242       0.49858232        1 
H      -5.49329439      -0.31529061       0.42978697        1 
H      -1.78446922      -1.63939834       1.46527256        1 
C       2.44906688      -0.65963521       0.53780188        6 
O       3.19351333      -0.56849245      -0.66258611        8 
H       2.83331645      -1.46969622       1.17540480        1 
H       2.50903499       0.27449440       1.10503778        1 
C       4.51278043      -0.10392035      -0.45546641        6 
H       4.99751682      -0.06446206      -1.43112743        1 
H       5.07967550      -0.78044675       0.20001212        1 
H       4.51257822       0.90094195      -0.01162612        1 
