36
Lattice="0.0 0.0 0.0 0.0 0.0 0.0 0.0 0.0 0.0" Properties=species:S:1:pos:R:3:Z:I:1 pbc="F F F"
C      -1.24376409      -1.07784703      -0.78225604        6 
C       0.08457831      -0.25673545      -0.86698767        6 
C      -2.35017452      -0.57564081       0.16160149        6 
C      -0.08689226       1.24432291      -1.04118438        6 
O      -2.39975871       0.75668564       0.29255062        8 
O      -3.07621460      -1.32103727       0.77520529        8 
O       0.73615019       1.99400847      -0.28731354        8 
O      -0.89514857       1.71269714      -1.80420881        8 
C       0.61678537       3.41784326      -0.46349956        6 
C      -3.39260447       1.26766336       1.20143681        6 
C      -0.68465495      -2.34728131      -0.09156173        6 
C       0.41396653      -3.03699190      -0.93044616        6 
C       1.65988949      -2.16372489      -0.60302933        6 
C       0.99862527      -1.00536413       0.17883937        6 
O       0.05112875      -1.72818205       0.98725483        8 
H      -1.68340189      -1.25219199      -1.76560838        1 
H       0.49846389      -0.50483101      -1.85137153        1 
H      -0.39347868       3.74826782      -0.21779806        1 
H      -3.19172576       0.91878303       2.21556355        1 
H       0.54983433      -4.06997824      -0.60848396        1 
H       0.16815989      -3.05124182      -1.99506112        1 
H       2.35217952      -2.69205468       0.05472870        1 
H       2.21256827      -1.82521774      -1.47918550        1 
H       1.34216583       3.85579628       0.21881612        1 
H       0.84316337       3.69575614      -1.49386802        1 
H      -4.38890254       0.94266858       0.89946934        1 
H      -3.30717149       2.35021439       1.13997753        1 
H      -1.45293375      -2.99378539       0.31822672        1 
C       1.93082650      -0.22436682       1.07815420        6 
O       3.00719947       0.24498623       0.28479105        8 
H       2.29543634      -0.90064609       1.86512403        1 
H       1.40271579       0.60851410       1.55259773        1 
C       3.81462679       1.18914480       0.95593818        6 
H       4.59253375       1.50256928       0.25895219        1 
H       4.28782217       0.75530050       1.84856768        1 
H       3.22809541       2.06689801       1.25993377        1 
