36
Lattice="0.0 0.0 0.0 0.0 0.0 0.0 0.0 0.0 0.0" Properties=species:S:1:pos:R:3:Z:I:1 pbc="F F F"
C      -1.01821781      -0.99659724      -0.81165608        6 
C       0.23760449      -0.08032208      -0.79708883        6 
C      -2.24291249      -0.59887507      -0.00283791        6 
C       0.06002151       1.42670388      -0.69326087        6 
O      -1.95231760       0.06719323       1.12525371        8 
O      -3.35687504      -0.97748172      -0.28481471        8 
O      -1.22783507       1.79852306      -0.83506420        8 
O       0.97128071       2.21920528      -0.70738130        8 
C      -1.48062172       3.21084438      -0.93555993        6 
C      -3.06292943       0.37152650       1.98394019        6 
C      -0.41462382      -2.25016861      -0.09787392        6 
C       0.68727854      -2.89545266      -0.97066232        6 
C       1.89360082      -1.95119916      -0.68951131        6 
C       1.21573434      -0.85435820       0.16561610        6 
O       0.32339662      -1.64419713       0.97101173        8 
H      -1.36868687      -1.22007173      -1.81745219        1 
H       0.68085101      -0.14081025      -1.79731156        1 
H      -0.93405103       3.63781565      -1.77758895        1 
H      -3.56570791      -0.54391162       2.29924073        1 
H       0.88759829      -3.91494651      -0.63887730        1 
H       0.40621678      -2.93623090      -2.02540045        1 
H       2.65902965      -2.45121964      -0.09438537        1 
H       2.36757605      -1.55365150      -1.58606595        1 
H      -2.55405988       3.30031380      -1.08712419        1 
H      -1.17860008       3.71664452      -0.01724685        1 
H      -3.77941968       1.01371871       1.46833239        1 
H      -2.63349786       0.88684528       2.84034467        1 
H      -1.15742169      -2.93416009       0.30738896        1 
C       2.14326647      -0.04784109       1.04998888        6 
O       3.24592814       0.35978275       0.26119046        8 
H       2.47325576      -0.68582662       1.88251476        1 
H       1.61800824       0.81725273       1.47001417        1 
C       3.92798052       1.48477978       0.78382874        6 
H       4.75979392       1.69290535       0.11037382        1 
H       4.32448446       1.28378859       1.78934095        1 
H       3.26623797       2.35834914       0.81884321        1 
