36
Lattice="0.0 0.0 0.0 0.0 0.0 0.0 0.0 0.0 0.0" Properties=species:S:1:pos:R:3:Z:I:1 pbc="F F F"
C      -1.03966739      -1.14905649      -0.61682174        6 
C       0.25335949      -0.26026575      -0.79690891        6 
C      -2.36828845      -0.45888732      -0.39356595        6 
C      -0.02207827       1.23292039      -0.69301577        6 
O      -2.33360895       0.43133668       0.61438173        8 
O      -3.36652137      -0.71398306      -1.02388647        8 
O       0.22296166       1.77339895       0.50958145        8 
O      -0.42381135       1.87229139      -1.63735305        8 
C      -0.10906114       3.16432433       0.64775177        6 
C      -3.56156416       1.13215322       0.88313749        6 
C      -0.61343446      -2.06192459       0.58098833        6 
C       0.29718940      -3.17279594       0.03155436        6 
C       1.56821751      -2.34545890      -0.31332450        6 
C       1.19768947      -0.93737650       0.24530830        6 
O       0.29859145      -1.24825560       1.32297272        8 
H      -1.19653892      -1.75155078      -1.50985105        1 
H       0.63701268      -0.38840734      -1.80718791        1 
H      -1.16858612       3.31999885       0.43905515        1 
H      -4.35758741       0.42885184       1.13136222        1 
H       0.50072967      -3.90579464       0.81368432        1 
H      -0.13439876      -3.69427993      -0.82444234        1 
H       2.45003856      -2.73120973       0.19995369        1 
H       1.79122113      -2.31699982      -1.38013201        1 
H       0.11925705       3.41508024       1.68155040        1 
H       0.48372545       3.77204047      -0.03754951        1 
H      -3.85779303       1.71911616       0.01231916        1 
H      -3.34379386       1.77935184       1.72988288        1 
H      -1.42987470      -2.38258089       1.22460830        1 
C       2.37636415      -0.13471391       0.75877818        6 
O       3.06547528       0.36517541      -0.37702427        8 
H       3.03184602      -0.78617258       1.35449393        1 
H       2.02555590       0.68325865       1.39238401        1 
C       4.13493344       1.22664376      -0.03723110        6 
H       4.58103220       1.57065357      -0.97043393        1 
H       4.89914064       0.70482531       0.55551363        1 
H       3.77736693       2.09418350       0.53421149        1 
