36
Lattice="0.0 0.0 0.0 0.0 0.0 0.0 0.0 0.0 0.0" Properties=species:S:1:pos:R:3:Z:I:1 pbc="F F F"
C      -1.04275587      -0.81427374      -0.64627419        6 
C       0.28942064      -0.01701810      -0.71826122        6 
C      -2.09207808      -0.27992410       0.31230670        6 
C       0.26168164       1.49053870      -0.52216517        6 
O      -3.33013604      -0.56708603      -0.16153474        8 
O      -1.89720062       0.24974170       1.37480018        8 
O      -0.98623770       1.99024489      -0.61146150        8 
O       1.24506435       2.19117989      -0.50580253        8 
C      -1.10611973       3.42233221      -0.56278515        6 
C      -4.42720207      -0.20118531       0.69453930        6 
C      -0.50957972      -2.14014529      -0.01355017        6 
C       0.44377448      -2.86283158      -0.99278578        6 
C       1.75577425      -2.04680162      -0.80087631        6 
C       1.26546078      -0.91508928       0.13428711        6 
O       0.36937249      -1.63779208       0.99766929        8 
H      -1.49756117      -0.96813689      -1.62287556        1 
H       0.63834178      -0.07009583      -1.75514754        1 
H      -0.54106132       3.88128978      -1.37538500        1 
H      -4.41825004       0.87276884       0.88688652        1 
H       0.57204775      -3.90582342      -0.70039078        1 
H       0.06911538      -2.84674552      -2.01881594        1 
H       2.51713673      -2.63424648      -0.28569127        1 
H       2.18793640      -1.67070007      -1.72741020        1 
H      -2.16933353       3.62668164      -0.66827582        1 
H      -0.73830223       3.79859972       0.39267465        1 
H      -4.36596056      -0.73426223       1.64484133        1 
H      -5.32659120      -0.48663688       0.15295490        1 
H      -1.27827341      -2.76209730       0.44103008        1 
C       2.34307453      -0.23744004       0.95317467        6 
O       3.40218630       0.10041173       0.07550831        8 
H       2.68651218      -0.94168454       1.72467137        1 
H       1.94517507       0.65107517       1.45446291        1 
C       4.23778400       1.12814773       0.57573144        6 
H       5.02245109       1.28814361      -0.16433131        1 
H       4.70077969       0.84055418       1.53045922        1 
H       3.67222971       2.05771547       0.70862425        1 
