36
Lattice="0.0 0.0 0.0 0.0 0.0 0.0 0.0 0.0 0.0" Properties=species:S:1:pos:R:3:Z:I:1 pbc="F F F"
C      -1.18654015      -0.81299106      -0.86712837        6 
C       0.21791836      -0.09783412      -0.79505635        6 
C      -2.32458687       0.04651886      -0.33776054        6 
C       0.17111086       1.31147110      -0.24048033        6 
O      -2.77915980      -0.35274882       0.85571649        8 
O      -2.78328737       0.97540641      -0.96162359        8 
O       0.67984586       2.19248031      -1.12008575        8 
O      -0.27172098       1.62517988       0.83954870        8 
C       0.65226456       3.57251331      -0.71353124        6 
C      -3.78148032       0.48303370       1.46392513        6 
C      -0.89713299      -2.11276417      -0.08227767        6 
C       0.01715480      -3.03101777      -0.92456795        6 
C       1.39248880      -2.31858547      -0.76289352        6 
C       1.00155038      -1.11006961       0.12293766        6 
O      -0.02270411      -1.65926802       0.95930735        8 
H      -1.43684272      -1.00858033      -1.91120351        1 
H       0.67526832      -0.04791346      -1.77944653        1 
H       1.23854786       3.71389407       0.19590025        1 
H      -4.66156813       0.55717176       0.82351797        1 
H       0.03637817      -4.03667441      -0.50236110        1 
H      -0.31056125      -3.10833579      -1.96363327        1 
H       2.10686395      -2.94688129      -0.22739243        1 
H       1.84932516      -2.01785416      -1.70518147        1 
H       1.08935484       4.12640388      -1.54130748        1 
H      -0.37551094       3.89192643      -0.53537187        1 
H      -3.37137572       1.47800598       1.64045246        1 
H      -4.02798078      -0.00266858       2.40527619        1 
H      -1.77240017      -2.58355044       0.35563951        1 
C       2.09885648      -0.53230681       0.98958705        6 
O       3.03556302       0.09514038       0.12936550        8 
H       2.57208084      -1.34214884       1.56285532        1 
H       1.67102007       0.18742897       1.69721242        1 
C       4.09071925       0.72698957       0.82867221        6 
H       4.73193569       1.20004337       0.08463236        1 
H       4.68257775       0.00068268       1.40308019        1 
H       3.71013314       1.49376908       1.51759713        1 
