36
Lattice="0.0 0.0 0.0 0.0 0.0 0.0 0.0 0.0 0.0" Properties=species:S:1:pos:R:3:Z:I:1 pbc="F F F"
C      -1.48867293      -0.45800752      -0.90060065        6 
C       0.02840929      -0.10267495      -0.86732712        6 
C      -2.54187781       0.27102132      -0.07542163        6 
C       0.51971301       1.32400401      -0.68049490        6 
O      -2.07130142       0.90015099       0.99672554        8 
O      -3.72219868       0.14858095      -0.32503737        8 
O       1.60933571       1.49647329      -1.47109683        8 
O       0.07229905       2.20794674       0.00337223        8 
C       2.28023791       2.75931367      -1.35180253        6 
C      -3.04141795       1.52001209       1.85708832        6 
C      -1.40022366      -1.89032342      -0.28215970        6 
C      -0.51059728      -2.83158347      -1.13619112        6 
C       0.92129098      -2.42680380      -0.66644217        6 
C       0.58363639      -1.17942904       0.17276265        6 
O      -0.59051526      -1.62514234       0.86787940        8 
H      -1.86796738      -0.48175218      -1.92250639        1 
H       0.42702196      -0.37970903      -1.84174618        1 
H       2.62011531       2.91493610      -0.32619383        1 
H      -3.67518744       0.76278766       2.32247586        1 
H      -0.73037529      -3.87473431      -0.90682174        1 
H      -0.66842653      -2.68528535      -2.20683511        1 
H       1.35975518      -3.19334488      -0.02446549        1 
H       1.61487246      -2.21465042      -1.47945909        1 
H       3.12994706       2.70124185      -2.02873297        1 
H       1.61717283       3.57813780      -1.63648759        1 
H      -3.66504793       2.21394266       1.29201469        1 
H      -2.45966756       2.05039425       2.60708948        1 
H      -2.36080316      -2.29982267       0.02103848        1 
C       1.59299162      -0.72187742       1.20304341        6 
O       2.82069090      -0.45626332       0.55094980        8 
H       1.71061177      -1.51792730       1.95226652        1 
H       1.21505626       0.17425424       1.71346886        1 
C       3.78744188       0.11833711       1.40812100        6 
H       4.69185637       0.26716183       0.81775309        1 
H       4.01798303      -0.54081882       2.25692235        1 
H       3.44789154       1.08737778       1.80025092        1 
