36
Lattice="0.0 0.0 0.0 0.0 0.0 0.0 0.0 0.0 0.0" Properties=species:S:1:pos:R:3:Z:I:1 pbc="F F F"
C      -1.20166402      -0.88185685      -0.78336358        6 
C       0.21811139      -0.18907506      -0.85503086        6 
C      -2.30642753      -0.04415529      -0.12948816        6 
C       0.18241569       1.32599659      -0.99360154        6 
O      -2.80229621      -0.61841572       0.98643722        8 
O      -2.73827030       0.98833827      -0.57626394        8 
O       0.73224949       2.00000455       0.03581267        8 
O      -0.37690475       1.86867701      -1.91107964        8 
C       0.64370760       3.43543827      -0.04655936        6 
C      -3.86302788       0.09594697       1.64441355        6 
C      -0.82185203      -2.12099737       0.05658445        6 
C       0.16729266      -3.02642141      -0.71351520        6 
C       1.51326179      -2.28386507      -0.48364363        6 
C       1.02106103      -0.99980672       0.22793958        6 
O      -0.00632742      -1.52576913       1.08388374        8 
H      -1.55649972      -1.11952334      -1.78721180        1 
H       0.62656324      -0.47369457      -1.82777239        1 
H      -0.39751718       3.74496890      -0.14190330        1 
H      -4.72943925       0.18678351       0.98716633        1 
H       0.18195357      -4.02932320      -0.28523524        1 
H      -0.09785618      -3.11862130      -1.76938677        1 
H       2.16130513      -2.84248072       0.19416266        1 
H       2.07255634      -2.07639977      -1.39555976        1 
H       1.07534601       3.80502904       0.88135190        1 
H       1.20906200       3.80155947      -0.90493585        1 
H      -3.52808250       1.09291024       1.93408977        1 
H      -4.10686276      -0.49662625       2.52345560        1 
H      -1.66293625      -2.63088273       0.51390629        1 
C       2.07260810      -0.29395008       1.05534251        6 
O       3.07588865       0.15893964       0.16090406        8 
H       2.49204900      -1.00762537       1.77941519        1 
H       1.62953256       0.54192656       1.60274853        1 
C       3.99380816       1.04815345       0.76468214        6 
H       4.71685655       1.33373894       0.00008481        1 
H       4.52576610       0.57216958       1.60063091        1 
H       3.48573602       1.94871831       1.13534958        1 
