36
Lattice="0.0 0.0 0.0 0.0 0.0 0.0 0.0 0.0 0.0" Properties=species:S:1:pos:R:3:Z:I:1 pbc="F F F"
C      -1.23216261      -0.98617018      -0.55027258        6 
C       0.06196214      -0.10447716      -0.65362391        6 
C      -2.44356319      -0.34207188       0.10643872        6 
C      -0.02857554       1.28411293      -0.04998028        6 
O      -3.03318939       0.51460819      -0.75742095        8 
O      -2.85465907      -0.57039595       1.21324794        8 
O       0.91125801       2.08835833      -0.59346134        8 
O      -0.80517426       1.65822327       0.79287012        8 
C       0.96096107       3.43143121      -0.08183628        6 
C      -4.11892740       1.29080508      -0.21855548        6 
C      -0.71616977      -2.19705691       0.26682652        6 
C       0.13564991      -3.10384851      -0.64038705        6 
C       1.41753694      -2.23708251      -0.80467069        6 
C       1.08996591      -1.02685344       0.10966290        6 
O       0.27080908      -1.60447770       1.12836766        8 
H      -1.54166189      -1.28106034      -1.55497389        1 
H       0.37494470       0.01995471      -1.68862545        1 
H       1.14717387       3.42580153       0.99348932        1 
H      -3.76463464       1.88397275       0.62545257        1 
H       0.35500831      -4.04338512      -0.13085087        1 
H      -0.35657462      -3.33801177      -1.58660455        1 
H       2.30342686      -2.75084163      -0.42926227        1 
H       1.61901525      -1.93484327      -1.83211754        1 
H       1.78076985       3.91200471      -0.61133828        1 
H       0.02119365       3.95049766      -0.27751235        1 
H      -4.93068979       0.63950852       0.10915777        1 
H      -4.44894331       1.93373494      -1.03194790        1 
H      -1.47673549      -2.68204669       0.87162121        1 
C       2.29463704      -0.36458957       0.74454776        6 
O       3.18200573       0.01568301      -0.29021169        8 
H       2.76966271      -1.08687205       1.42347947        1 
H       1.98998566       0.50424125       1.34340459        1 
C       4.22291921       0.86032409       0.15716896        6 
H       4.85255577       1.07939251      -0.70535680        1 
H       4.83200635       0.37506982       0.93278956        1 
H       3.82304467       1.80154655       0.55901417        1 
