36
Lattice="0.0 0.0 0.0 0.0 0.0 0.0 0.0 0.0 0.0" Properties=species:S:1:pos:R:3:Z:I:1 pbc="F F F"
C      -0.95027849       1.08811435       0.40637007        6 
C       0.19737052       0.07768673       0.67928355        6 
C      -2.40041855       0.65805739       0.31869554        6 
C       0.03615301      -1.34833330       0.18326263        6 
O      -2.61308192      -0.61047501       0.70971457        8 
O      -3.29509710       1.44262521       0.10433021        8 
O      -0.63796295      -1.43259381      -0.97610344        8 
O       0.57931224      -2.29562193       0.70334620        8 
C      -0.76285046      -2.74530949      -1.54324208        6 
C      -3.98719343      -1.03186731       0.79227537        6 
C      -0.38945846       1.95636896      -0.76176968        6 
C       0.49517665       3.04825288      -0.13904459        6 
C       1.64533142       2.16896383       0.43691691        6 
C       1.32363615       0.77618754      -0.18280574        6 
O       0.59419990       1.10951364      -1.37378614        8 
H      -1.00251903       1.73783211       1.28782807        1 
H       0.47408627       0.01763592       1.72865742        1 
H      -1.29637107      -3.40762948      -0.85892488        1 
H      -4.46078505      -0.97339731      -0.18885120        1 
H       0.86125453       3.71877656      -0.91817218        1 
H      -0.02184201       3.64465452       0.61513579        1 
H       2.62638417       2.51125090       0.10571630        1 
H       1.66134213       2.13338744       1.52674556        1 
H      -1.32638121      -2.61051807      -2.46402292        1 
H       0.22041194      -3.16860361      -1.75476622        1 
H      -4.53736763      -0.40477829       1.49516824        1 
H      -3.95182238      -2.06178532       1.14038798        1 
H      -1.12670668       2.27447753      -1.49375755        1 
C       2.53582934      -0.06109526      -0.53148660        6 
O       3.24761800      -0.29940519       0.66706080        8 
H       3.15422359       0.48826164      -1.25644615        1 
H       2.23012781      -1.00471082      -1.00026689        1 
C       4.20519474      -1.33640155       0.54913917        6 
H       4.69725186      -1.42820346       1.51738552        1 
H       4.95875113      -1.10106097      -0.21563617        1 
H       3.72058984      -2.28882629       0.29952642        1 
