36
Lattice="0.0 0.0 0.0 0.0 0.0 0.0 0.0 0.0 0.0" Properties=species:S:1:pos:R:3:Z:I:1 pbc="F F F"
C      -1.13190364      -1.00378452      -0.30857071        6 
C       0.09866172      -0.04610558      -0.56036033        6 
C      -2.44311587      -0.36145503       0.10159969        6 
C      -0.14991939       1.37776205      -0.05698441        6 
O      -3.14222678       0.01155907      -0.98719649        8 
O      -2.86519533      -0.29855483       1.23016344        8 
O       0.91261918       1.95860113       0.51914847        8 
O      -1.19199936       1.96434172      -0.22882318        8 
C       0.73016377       3.32207600       0.94848793        6 
C      -4.35465712       0.74240940      -0.73807588        6 
C      -0.55241272      -1.99987519       0.73372247        6 
C       0.18861965      -3.09471138      -0.04481961        6 
C       1.34143467      -2.24932001      -0.65133904        6 
C       1.20978131      -0.90105766       0.13318680        6 
O       0.53498353      -1.28245258       1.34307032        8 
H      -1.34585410      -1.52327702      -1.24415593        1 
H       0.28711407       0.06226883      -1.63035880        1 
H      -0.08076794       3.38573468       1.67469879        1 
H      -4.11956339       1.68350410      -0.23858697        1 
H       0.56709421      -3.85365417       0.64218333        1 
H      -0.43610019      -3.58568833      -0.79356952        1 
H       2.31915577      -2.69461353      -0.46763785        1 
H       1.24649657      -2.10097114      -1.72784390        1 
H       1.67678324       3.60795251       1.40195443        1 
H       0.50276234       3.96202325       0.09494274        1 
H      -5.03781534       0.15803431      -0.11985333        1 
H      -4.78812644       0.92918319      -1.71829059        1 
H      -1.25589289      -2.31292946       1.49994589        1 
C       2.55663999      -0.28690478       0.46282272        6 
O       3.11201124       0.18857206      -0.75273766        8 
H       3.19498840      -1.07020399       0.89749727        1 
H       2.45103516       0.51916301       1.19030821        1 
C       4.33614520       0.87051167      -0.56885207        6 
H       4.68354872       1.18234561      -1.55423699        1 
H       5.09480336       0.21989784      -0.11115296        1 
H       4.20581096       1.75905278       0.06450192        1 
