36
Lattice="0.0 0.0 0.0 0.0 0.0 0.0 0.0 0.0 0.0" Properties=species:S:1:pos:R:3:Z:I:1 pbc="F F F"
C      -0.98622440      -0.97606251      -0.74557924        6 
C       0.34955063      -0.14966121      -0.84047989        6 
C      -2.22880411      -0.12554431      -0.54778706        6 
C       0.23583377       1.34032620      -0.57354110        6 
O      -2.92508399      -0.45321588       0.55366928        8 
O      -2.58315562       0.71938709      -1.33524567        8 
O      -0.45864882       1.60542796       0.55276160        8 
O       0.73121225       2.19388420      -1.26570210        8 
C      -0.69454260       2.99524031       0.83614666        6 
C      -4.12021083       0.31140912       0.79394084        6 
C      -0.64099998      -1.99838197       0.36851077        6 
C       0.28777050      -3.08096510      -0.21552506        6 
C       1.61338119      -2.28069286      -0.36945039        6 
C       1.21492907      -0.90572199       0.22798873        6 
O       0.24634432      -1.25921782       1.22370581        8 
H      -1.15595085      -1.48140455      -1.70000551        1 
H       0.80090922      -0.22870894      -1.82615370        1 
H      -1.29092860       3.44179276       0.03874622        1 
H      -4.82375088       0.19190104      -0.03124005        1 
H       0.39812056      -3.90026663       0.49645433        1 
H      -0.08193026      -3.49671552      -1.15520609        1 
H       2.41939723      -2.72063196       0.21954886        1 
H       1.96041816      -2.19734275      -1.39893818        1 
H      -1.23749071       3.00997880       1.77870598        1 
H       0.24892780       3.53535908       0.92711580        1 
H      -3.87539165       1.36847054       0.90671569        1 
H      -4.53732912      -0.08592637       1.71655447        1 
H      -1.49095032      -2.35155318       0.94350942        1 
C       2.34886310      -0.12269852       0.85490566        6 
O       3.30019820       0.12560960      -0.16319898        8 
H       2.78761225      -0.71238832       1.67291803        1 
H       1.97428706       0.81637300       1.28291299        1 
C       4.28737941       1.06868512       0.20901597        6 
H       4.95678074       1.18316302      -0.64341225        1 
H       4.86584808       0.72464716       1.07794648        1 
H       3.83579802       2.04216937       0.44206017        1 
