36
Lattice="0.0 0.0 0.0 0.0 0.0 0.0 0.0 0.0 0.0" Properties=species:S:1:pos:R:3:Z:I:1 pbc="F F F"
C      -1.16436589      -0.78731970      -0.53374762        6 
C       0.25788029      -0.16297881      -0.76996357        6 
C      -2.24557564       0.13694207      -0.01713440        6 
C       0.26019926       1.35583847      -0.65636837        6 
O      -3.45717533      -0.32259152      -0.40766728        8 
O      -2.10197605       1.10501901       0.68583373        8 
O       0.73713078       1.83425103       0.49832019        8 
O      -0.14445290       2.05294656      -1.55732516        8 
C       0.59293650       3.25227649       0.69447650        6 
C      -4.59653539       0.41983392       0.06683858        6 
C      -0.83744010      -1.87889619       0.53966177        6 
C      -0.14563343      -3.06327232      -0.16021319        6 
C       1.25030526      -2.44604386      -0.45303632        6 
C       1.12042352      -1.03714722       0.19610295        6 
O       0.22090273      -1.28353732       1.29283556        8 
H      -1.54267954      -1.25303901      -1.44224530        1 
H       0.55309472      -0.34524988      -1.80212121        1 
H      -0.46595214       3.51308837       0.69923379        1 
H      -4.53981181       1.45603965      -0.26905052        1 
H      -0.07323755      -3.91179717       0.52216802        1 
H      -0.67851175      -3.39087209      -1.05455439        1 
H       2.04623193      -3.00488944       0.04166229        1 
H       1.49153389      -2.39017105      -1.51438419        1 
H       1.04219277       3.45684566       1.66396067        1 
H       1.10469986       3.80469296      -0.09469735        1 
H      -4.64088916       0.39672072       1.15698879        1 
H      -5.46397209      -0.07636896      -0.36275256        1 
H      -1.66535991      -2.12981376       1.19972129        1 
C       2.42752073      -0.46543236       0.70685019        6 
O       3.17200824      -0.05731120      -0.43044720        8 
H       2.96857572      -1.24258797       1.26597331        1 
H       2.23682731       0.37896003       1.37236637        1 
C       4.37413796       0.60720628      -0.09295847        6 
H       4.85855093       0.89088762      -1.02755259        1 
H       5.04888803      -0.04731162       0.47685922        1 
H       4.17564246       1.51087947       0.49962470        1 
