36
Lattice="0.0 0.0 0.0 0.0 0.0 0.0 0.0 0.0 0.0" Properties=species:S:1:pos:R:3:Z:I:1 pbc="F F F"
C      -1.07632140      -1.07742614      -0.50596195        6 
C       0.14341606      -0.10091891      -0.60611363        6 
C      -2.44020379      -0.57570801      -0.07055883        6 
C      -0.02164121       1.23715129       0.09238263        6 
O      -2.60853545       0.73841023      -0.29154961        8 
O      -3.33282522      -1.31238214       0.27539502        8 
O       0.18476288       2.25037198      -0.77592813        8 
O      -0.27632369       1.40533844       1.25911887        8 
C       0.06592086       3.57331344      -0.22897297        6 
C      -3.90330933       1.28072463       0.02826214        6 
C      -0.51045152      -2.24400260       0.34879143        6 
C       0.36704320      -3.13194973      -0.55285503        6 
C       1.57721493      -2.18306462      -0.79780746        6 
C       1.22681903      -0.98282337       0.12458235        6 
O       0.46437915      -1.59417129       1.17333781        8 
H      -1.28939587      -1.44830546      -1.51518629        1 
H       0.42143570       0.08943841      -1.63904318        1 
H       0.80128851       3.72894236       0.56225143        1 
H      -4.10439981       1.16538178       1.09393368        1 
H       0.67083292      -4.02777879      -0.00952167        1 
H      -0.13948708      -3.44289106      -1.46846841        1 
H       2.51570906      -2.63660601      -0.47525991        1 
H       1.69506192      -1.88164586      -1.83894281        1 
H       0.25064659       4.24985864      -1.06065996        1 
H      -0.93428442       3.72877870       0.17930635        1 
H      -4.68126427       0.77552745      -0.54568280        1 
H      -3.84837881       2.33357868      -0.23891723        1 
H      -1.25066095      -2.74780609       0.96391347        1 
C       2.40983814      -0.25285009       0.72456432        6 
O       3.06698534       0.43463455      -0.32720471        8 
H       3.08295307      -0.98294134       1.19598568        1 
H       2.06546341       0.44309690       1.49860218        1 
C       4.16192742       1.21037742       0.12001186        6 
H       4.59434859       1.69237623      -0.75697695        1 
H       4.92699302       0.58491605       0.60087374        1 
H       3.84058944       1.98187062       0.83352042        1 
