36
Lattice="0.0 0.0 0.0 0.0 0.0 0.0 0.0 0.0 0.0" Properties=species:S:1:pos:R:3:Z:I:1 pbc="F F F"
C      -1.12138593      -0.65847520      -0.35064605        6 
C       0.24651400       0.02907125      -0.66617466        6 
C      -2.41592983       0.12553681      -0.22215763        6 
C       0.51056682       1.48445457      -0.30876169        6 
O      -3.39557523      -0.58109716      -0.85521596        8 
O      -2.64148253       1.15359842       0.35877887        8 
O      -0.07510438       1.87690757       0.82115426        8 
O       1.30510286       2.16309675      -0.92401917        8 
C       0.17337978       3.22644928       1.24330377        6 
C      -4.72262386      -0.03243160      -0.76956307        6 
C      -0.77011244      -1.53108926       0.91337636        6 
C      -0.21234182      -2.86210321       0.38721615        6 
C       1.10369773      -2.35204651      -0.27027831        6 
C       1.16870242      -0.87912655       0.23916969        6 
O       0.40325770      -0.91652905       1.45120818        8 
H      -1.31336885      -1.34527573      -1.17405432        1 
H       0.50962200      -0.07366492      -1.71663073        1 
H      -0.16248609       3.93007249       0.48010513        1 
H      -4.75392439       0.96542369      -1.20986675        1 
H      -0.00562717      -3.53614971       1.22049635        1 
H      -0.88516103      -3.36625571      -0.30860982        1 
H       1.97624323      -2.90598416       0.07654821        1 
H       1.09452210      -2.40378027      -1.35925313        1 
H      -0.40353031       3.35038863       2.15659223        1 
H       1.23745176       3.38030447       1.43160293        1 
H      -5.04662274       0.02660101       0.27101709        1 
H      -5.35589229      -0.71755078      -1.32924578        1 
H      -1.54254092      -1.58321261       1.67726413        1 
C       2.57024634      -0.37489435       0.51270743        6 
O       3.28419831      -0.44643117      -0.70602855        8 
H       3.03555200      -1.00861128       1.28179365        1 
H       2.54620045       0.65239142       0.89538509        1 
C       4.46692590       0.33369592      -0.71005249        6 
H       4.93342551       0.19951022      -1.68597127        1 
H       5.16785241       0.00514067       0.07046340        1 
H       4.23429107       1.39604580      -0.56527784        1 
