36
Lattice="0.0 0.0 0.0 0.0 0.0 0.0 0.0 0.0 0.0" Properties=species:S:1:pos:R:3:Z:I:1 pbc="F F F"
C      -0.95036967      -0.90320094      -0.53060839        6 
C       0.34426792      -0.02108253      -0.64011778        6 
C      -2.09996134      -0.27384321       0.22450102        6 
C       0.15418784       1.41506576      -0.17228213        6 
O      -3.27012323      -0.51929868      -0.40808068        8 
O      -2.02466140       0.31406900       1.27446859        8 
O      -0.85561967       1.97092269      -0.88659536        8 
O       0.79977326       2.02760031       0.63629398        8 
C      -1.23569314       3.30431267      -0.50297917        6 
C      -4.45152939      -0.01233149       0.23984379        6 
C      -0.39783895      -2.12857929       0.26723015        6 
C       0.45279508      -2.99798251      -0.67830157        6 
C       1.72095860      -2.10944749      -0.82402449        6 
C       1.38175503      -0.91412970       0.11044944        6 
O       0.57809099      -1.53777333       1.12810822        8 
H      -1.31449410      -1.20333576      -1.51112375        1 
H       0.62148785       0.06972507      -1.69203331        1 
H      -0.39410653       3.98993128      -0.60994463        1 
H      -4.39492511       1.07331787       0.33354620        1 
H       0.68636988      -3.94984487      -0.19858502        1 
H      -0.04907222      -3.20901830      -1.62469204        1 
H       2.61123895      -2.61914231      -0.45321190        1 
H       1.92045461      -1.79142948      -1.84734844        1 
H      -2.04334124       3.58119809      -1.17743278        1 
H      -1.57897835       3.30753071       0.53285767        1 
H      -4.56324353      -0.45181062       1.23223275        1 
H      -5.28081493      -0.29892416      -0.40309601        1 
H      -1.14105585      -2.65494483       0.86307469        1 
C       2.58502353      -0.24456743       0.73847592        6 
O       3.29716385       0.39564983      -0.30961625        8 
H       3.20941232      -1.01038044       1.22110949        1 
H       2.26241938       0.47778756       1.49077350        1 
C       4.26233379       1.31633423       0.16468559        6 
H       4.74766995       1.75165195      -0.70957393        1 
H       5.02272624       0.81828715       0.78296724        1 
H       3.78828982       2.11287837       0.75156786        1 
