36
Lattice="0.0 0.0 0.0 0.0 0.0 0.0 0.0 0.0 0.0" Properties=species:S:1:pos:R:3:Z:I:1 pbc="F F F"
C      -1.06872810      -1.14992661      -0.62574202        6 
C       0.22557329      -0.26162042      -0.79170626        6 
C      -2.37617730      -0.43948404      -0.34934180        6 
C      -0.08786512       1.22622741      -0.70449955        6 
O      -2.29124742       0.40987007       0.69257023        8 
O      -3.39426122      -0.64164714      -0.96510234        8 
O       0.38623179       1.85119488       0.38172869        8 
O      -0.72915812       1.78562529      -1.56329755        8 
C       0.04283720       3.24248365       0.50377446        6 
C      -3.48201658       1.15978266       0.99156055        6 
C      -0.63559813      -2.08901119       0.54786487        6 
C       0.27843864      -3.18419405      -0.02483543        6 
C       1.54792573      -2.34656036      -0.34876764        6 
C       1.17289676      -0.95016994       0.23785165        6 
O       0.27377405      -1.28650496       1.30814616        8 
H      -1.25133211      -1.72708019      -1.53018928        1 
H       0.61070677      -0.38553494      -1.80359951        1 
H      -1.04104197       3.36038638       0.54029663        1 
H      -4.30955609       0.48890513       1.22623926        1 
H       0.48267903      -3.93479842       0.74021923        1 
H      -0.15079286      -3.68663937      -0.89339098        1 
H       2.42934852      -2.74067248       0.15878870        1 
H       1.77434276      -2.29595232      -1.41397322        1 
H       0.49547684       3.57088988       1.43692000        1 
H       0.43844167       3.81078626      -0.33902845        1 
H      -3.75352285       1.78380687       0.13864313        1 
H      -3.22888172       1.77170773       1.85465681        1 
H      -1.44966131      -2.42686415       1.18565925        1 
C       2.35501823      -0.16696228       0.77160512        6 
O       3.07622653       0.31405703      -0.35257246        8 
H       2.98535692      -0.83148840       1.38018110        1 
H       2.01092509       0.65967034       1.39653941        1 
C       4.14178416       1.17246275       0.00511636        6 
H       4.61550272       1.50212876      -0.91975213        1 
H       4.88665304       0.65320845       0.62435080        1 
H       3.77473437       2.04917753       0.55620205        1 
