36
Lattice="0.0 0.0 0.0 0.0 0.0 0.0 0.0 0.0 0.0" Properties=species:S:1:pos:R:3:Z:I:1 pbc="F F F"
C      -1.07254892      -1.20160868      -0.63345935        6 
C       0.20490017      -0.29974234      -0.82125310        6 
C      -2.31584586      -0.65753285       0.06862455        6 
C      -0.03199091       1.20167955      -0.85311437        6 
O      -2.47064826       0.66766664      -0.04447156        8 
O      -3.11582400      -1.37316987       0.62316151        8 
O       0.22227105       1.83234178       0.30881365        8 
O      -0.45611427       1.76410898      -1.83250197        8 
C      -0.05949658       3.24084773       0.32728017        6 
C      -3.66673069       1.22595124       0.53053553        6 
C      -0.47726698      -2.34014793       0.23456917        6 
C       0.55087374      -3.16086769      -0.57045488        6 
C       1.78401699      -2.21499920      -0.54479200        6 
C       1.20228687      -0.97801936       0.18533835        6 
O       0.33489838      -1.59213753       1.15603291        8 
H      -1.42762407      -1.56530145      -1.60133134        1 
H       0.56830064      -0.48350057      -1.83282018        1 
H      -1.11326433       3.41835328       0.10797573        1 
H      -3.67749292       1.06880910       1.60990157        1 
H       0.75941143      -4.10585798      -0.06725844        1 
H       0.19927587      -3.38899140      -1.57891620        1 
H       2.59338049      -2.63610716       0.05408203        1 
H       2.18123438      -1.97231700      -1.53000879        1 
H       0.18473277       3.57301654       1.33434527        1 
H       0.55131362       3.76450902      -0.40976596        1 
H      -4.55061375       0.76423165       0.08878653        1 
H      -3.63060057       2.28685520       0.29382931        1 
H      -1.22656564      -2.90800473       0.77724574        1 
C       2.22940322      -0.11169307       0.88169891        6 
O       2.97233764       0.54967381      -0.13062584        8 
H       2.88619007      -0.74723010       1.49308913        1 
H       1.73166113       0.60996947       1.53395853        1 
C       3.81798243       1.56209757       0.37843857        6 
H       4.32403388       2.01804269      -0.47288427        1 
H       4.57171341       1.15138535       1.06494369        1 
H       3.23785027       2.32969915       0.90891883        1 
