36
Lattice="0.0 0.0 0.0 0.0 0.0 0.0 0.0 0.0 0.0" Properties=species:S:1:pos:R:3:Z:I:1 pbc="F F F"
C      -0.91602286       1.08888913       0.42948921        6 
C       0.25717239       0.05826417       0.64257188        6 
C      -2.27265960       0.57448780      -0.01777806        6 
C       0.08187887      -1.39109105       0.21104140        6 
O      -2.96511775       0.10732566       1.04681841        8 
O      -2.70874895       0.59604889      -1.13965102        8 
O      -1.08113014      -1.64308288      -0.40360495        8 
O       0.93215796      -2.23427295       0.37837046        8 
C      -1.28278770      -2.97959362      -0.89590472        6 
C      -4.24474813      -0.47815372       0.75487009        6 
C      -0.29529586       2.05797374      -0.61684542        6 
C       0.62092877       3.04822935       0.11595286        6 
C       1.77164765       2.09707710       0.54711910        6 
C       1.38944124       0.77809981      -0.18807431        6 
O       0.64667739       1.23478548      -1.32479263        8 
H      -1.08927032       1.60233996       1.37731421        1 
H       0.54560079       0.00641488       1.69255641        1 
H      -1.29759254      -3.69144249      -0.06913652        1 
H      -4.12315243      -1.33983853       0.09590145        1 
H       0.97530647       3.81467630      -0.57556800        1 
H       0.12697180       3.54580867       0.95344048        1 
H       2.74343220       2.44850690       0.19889878        1 
H       1.84222327       1.95449083       1.62560045        1 
H      -2.24381170      -2.95379522      -1.40452609        1 
H      -0.48838194      -3.25004677      -1.59227421        1 
H      -4.90171413       0.24936670       0.27588176        1 
H      -4.65114078      -0.78703706       1.71565717        1 
H      -1.01179223       2.47290394      -1.31963126        1 
C       2.58801797      -0.03306395      -0.63441894        6 
O       3.36196953      -0.31563236       0.51686897        8 
H       3.16326727       0.56960029      -1.35286933        1 
H       2.27812264      -0.95493954      -1.13513524        1 
C       4.27807076      -1.37820229       0.32333921        6 
H       4.82602008      -1.50166201       1.25783256        1 
H       4.99151138      -1.15043567      -0.48157958        1 
H       3.74872397      -2.30930650       0.08765500        1 
