36
Lattice="0.0 0.0 0.0 0.0 0.0 0.0 0.0 0.0 0.0" Properties=species:S:1:pos:R:3:Z:I:1 pbc="F F F"
C      -1.13140459      -0.70805248      -0.53995195        6 
C       0.28923966      -0.09093045      -0.76596959        6 
C      -2.29956761       0.22634864      -0.29540232        6 
C       0.42082170       1.40762380      -0.52432532        6 
O      -3.43784596      -0.50621281      -0.23281739        8 
O      -2.28311185       1.42352872      -0.16776403        8 
O       0.32011818       1.74363019       0.77197432        8 
O       0.65061375       2.19795657      -1.40751445        8 
C       0.28167896       3.15286589       1.04962542        6 
C      -4.65304050       0.22845516       0.00815142        6 
C      -0.86569104      -1.72335965       0.62187545        6 
C      -0.22697956      -2.98557366       0.01606761        6 
C       1.17428342      -2.43005955      -0.37325222        6 
C       1.12125891      -0.98978774       0.21452742        6 
O       0.22719077      -1.13548766       1.33028392        8 
H      -1.42160960      -1.27166516      -1.43004846        1 
H       0.61029820      -0.23664094      -1.79444810        1 
H      -0.59269210       3.59516308       0.56994259        1 
H      -4.81782819       0.96176644      -0.78247698        1 
H      -0.14784263      -3.76373000       0.77704938        1 
H      -0.79311322      -3.38593797      -0.82669848        1 
H       1.97702699      -2.99523819       0.10267720        1 
H       1.36062040      -2.42835680      -1.44729483        1 
H       0.20562803       3.23250523       2.13200948        1 
H       1.18589115       3.64473409       0.68735393        1 
H      -4.60404092       0.74134840       0.96994344        1 
H      -5.44546056      -0.51672126       0.01161694        1 
H      -1.70561118      -1.88030927       1.29346916        1 
C       2.45814134      -0.45111378       0.67987216        6 
O       3.25610183      -0.26655529      -0.47687000        8 
H       2.92076343      -1.17705083       1.36441949        1 
H       2.31999244       0.49143047       1.22032828        1 
C       4.50214990       0.34377000      -0.20119682        6 
H       5.02933055       0.43924975      -1.15036169        1 
H       5.10447038      -0.26649603       0.48651688        1 
H       4.36777028       1.34223132       0.23654658        1 
