36
Lattice="0.0 0.0 0.0 0.0 0.0 0.0 0.0 0.0 0.0" Properties=species:S:1:pos:R:3:Z:I:1 pbc="F F F"
C      -1.00402980      -1.01027896      -0.52669871        6 
C       0.27801132      -0.12137719      -0.70895404        6 
C      -2.18266471      -0.43715660       0.24583630        6 
C       0.21652064       1.38800305      -0.52438807        6 
O      -3.22881120      -0.23248133      -0.59330748        8 
O      -2.23121673      -0.21886415       1.42738757        8 
O      -0.94824719       1.83629995      -0.03452755        8 
O       1.11682014       2.12327371      -0.85563454        8 
C      -1.07638642       3.26002679       0.12606734        6 
C      -4.40920102       0.32637400       0.00735033        6 
C      -0.39778497      -2.17997043       0.30723062        6 
C       0.54951988      -3.02512104      -0.56981287        6 
C       1.81128002      -2.11678482      -0.61710651        6 
C       1.32637356      -0.88761014       0.19090812        6 
O       0.49618706      -1.49150516       1.18956948        8 
H      -1.37332647      -1.34315150      -1.49560157        1 
H       0.60605979      -0.21000781      -1.74628336        1 
H      -1.01302856       3.75894091      -0.84223809        1 
H      -4.17868840       1.28432121       0.47631094        1 
H       0.76190800      -3.97967977      -0.08613974        1 
H       0.12807206      -3.23456741      -1.55538997        1 
H       2.65480646      -2.57985513      -0.10287166        1 
H       2.13548105      -1.85265044      -1.62276311        1 
H      -2.05522542       3.41030578       0.57562379        1 
H      -0.29177652       3.64063214       0.78072243        1 
H      -4.81496833      -0.35044872       0.76121489        1 
H      -5.11724829       0.45811837      -0.80822181        1 
H      -1.12590738      -2.73560220       0.89339242        1 
C       2.42674657      -0.08458682       0.85296839        6 
O       3.40899788       0.19732014      -0.12593879        8 
H       2.84948007      -0.68675496       1.66988498        1 
H       2.02740523       0.83857170       1.29004887        1 
C       4.25312060       1.27866700       0.22089276        6 
H       4.97166427       1.39389504      -0.59089836        1 
H       4.79856283       1.08182121       1.15512555        1 
H       3.67670176       2.20597873       0.32382996        1 
