36
Lattice="0.0 0.0 0.0 0.0 0.0 0.0 0.0 0.0 0.0" Properties=species:S:1:pos:R:3:Z:I:1 pbc="F F F"
C      -1.17475873      -0.77170083      -0.57153520        6 
C       0.17089224       0.01537773      -0.66872898        6 
C      -2.44186151       0.06287841      -0.61659716        6 
C       0.09671538       1.39509474      -0.01532434        6 
O      -3.22821062      -0.12319767       0.45856630        8 
O      -2.73116647       0.76700550      -1.55242211        8 
O       1.30610776       1.99282112       0.00544846        8 
O      -0.91044197       1.96107954       0.32865289        8 
C       1.33086931       3.34532080       0.49868807        6 
C      -4.42464766       0.67705733       0.50101446        6 
C      -0.90846569      -1.75396955       0.60629101        6 
C      -0.25572206      -3.00271447      -0.00430724        6 
C       1.06873123      -2.37383950      -0.52409672        6 
C       1.06204833      -0.97457417       0.17032606        6 
O       0.20444083      -1.16893667       1.30955844        8 
H      -1.25588477      -1.35765777      -1.49240449        1 
H       0.52939909       0.14053995      -1.68971304        1 
H       1.00605808       3.37863962       1.53992420        1 
H      -5.07123901       0.44511437      -0.34681038        1 
H      -0.06594857      -3.74599524       0.77184041        1 
H      -0.85883413      -3.46425008      -0.78879959        1 
H       1.94390489      -2.94482118      -0.21404783        1 
H       1.10617425      -2.28310928      -1.61048493        1 
H       2.36668972       3.66543575       0.40884904        1 
H       0.67777871       3.98001717      -0.10169979        1 
H      -4.16319201       1.73557722       0.47892527        1 
H      -4.91259291       0.41898932       1.43843506        1 
H      -1.73842211      -1.90119115       1.28945496        1 
C       2.43782612      -0.54298388       0.63521500        6 
O       3.24257158      -0.36844139      -0.51682768        8 
H       2.84633157      -1.33802593       1.27687189        1 
H       2.38891052       0.37721683       1.22334897        1 
C       4.50961480       0.18451263      -0.22343965        6 
H       5.04745943       0.27751320      -1.16714105        1 
H       5.08444822      -0.46201778       0.45504957        1 
H       4.41073846       1.17809425       0.23448648        1 
