36
Lattice="0.0 0.0 0.0 0.0 0.0 0.0 0.0 0.0 0.0" Properties=species:S:1:pos:R:3:Z:I:1 pbc="F F F"
C      -0.95714361      -0.96980349      -0.69864024        6 
C       0.34778969      -0.10343134      -0.80127109        6 
C      -2.24474545      -0.17040900      -0.62319865        6 
C       0.24568418       1.36610091      -0.43632123        6 
O      -2.98262661      -0.45637641       0.46352157        8 
O      -2.59948096       0.59192523      -1.49056903        8 
O      -0.67111010       1.60405927       0.51986236        8 
O       0.97262022       2.21890315      -0.88612327        8 
C      -0.82880631       2.97356682       0.92725601        6 
C      -4.22190683       0.26446288       0.58739334        6 
C      -0.61649702      -1.93039742       0.47474282        6 
C       0.28415887      -3.05506386      -0.06611815        6 
C       1.59272388      -2.26297406      -0.34956133        6 
C       1.24749561      -0.86651177       0.23956995        6 
O       0.30463956      -1.17027596       1.27514532        8 
H      -1.06180692      -1.53647080      -1.62827406        1 
H       0.79142865      -0.13604735      -1.79325497        1 
H      -1.19053128       3.57426695       0.09124605        1 
H      -4.87190102       0.05896051      -0.26435398        1 
H       0.43797544      -3.81015495       0.70610568        1 
H      -0.12834975      -3.54741334      -0.94915413        1 
H       2.44858806      -2.69022517       0.17438493        1 
H       1.84948175      -2.20453596      -1.40704468        1 
H      -1.56057851       2.95360698       1.73194711        1 
H       0.11965955       3.37961414       1.28077319        1 
H      -4.02967641       1.33713360       0.64048361        1 
H      -4.67298311      -0.09107693       1.51108238        1 
H      -1.46438957      -2.23305261       1.08053135        1 
C       2.42780073      -0.10819971       0.80914578        6 
O       3.36508629       0.05459367      -0.23705508        8 
H       2.85745202      -0.68583445       1.64061423        1 
H       2.10872772       0.86337443       1.20747059        1 
C       4.33988181       1.04702785       0.02801890        6 
H       5.00482324       1.07824376      -0.83507455        1 
H       4.92837754       0.80534045       0.92465676        1 
H       3.87179311       2.03115256       0.15592697        1 
