36
Lattice="0.0 0.0 0.0 0.0 0.0 0.0 0.0 0.0 0.0" Properties=species:S:1:pos:R:3:Z:I:1 pbc="F F F"
C      -0.80568056       1.01751889       0.35815178        6 
C       0.27745515      -0.12113085       0.47302374        6 
C      -2.25148268       0.67506439       0.06756450        6 
C      -0.01635284      -1.39898261      -0.32020379        6 
O      -2.81245886       0.06101460       1.12880307        8 
O      -2.88210152       1.05449119      -0.88964005        8 
O      -1.26314554      -1.84972212      -0.07273784        8 
O       0.74330830      -1.98596045      -1.04851323        8 
C      -1.64951116      -3.05722234      -0.75528779        6 
C      -4.19339232      -0.30721023       0.98918104        6 
C      -0.12041802       2.02110316      -0.61491332        6 
C       0.73323912       2.95543083       0.25315978        6 
C       1.75574316       1.92235461       0.80709127        6 
C       1.49372854       0.67539315      -0.10008916        6 
O       0.88873236       1.24130397      -1.27746874        8 
H      -0.86388296       1.47480366       1.34972412        1 
H       0.42055048      -0.42177231       1.51208794        1 
H      -0.99258905      -3.88164338      -0.47461946        1 
H      -4.32035556      -0.99156571       0.14817482        1 
H       1.22059272       3.70661030      -0.37041335        1 
H       0.16171286       3.46662751       1.03082354        1 
H       2.78518383       2.26084917       0.68983600        1 
H       1.60566068       1.69319650       1.86335074        1 
H      -2.66998169      -3.25470420      -0.43409335        1 
H      -1.60698763      -2.91369574      -1.83562320        1 
H      -4.81538247       0.57496957       0.82869622        1 
H      -4.45903193      -0.79847287       1.92281528        1 
H      -0.78417107       2.46949907      -1.34827190        1 
C       2.75825381      -0.07883397      -0.46502844        6 
O       3.17512389      -0.78195581       0.69618438        8 
H       3.52554959       0.64734650      -0.77248757        1 
H       2.56807042      -0.76561445      -1.28987996        1 
C       4.24850879      -1.66826884       0.44055744        6 
H       4.48321172      -2.17020980       1.37972513        1 
H       5.14014224      -1.12846478       0.09100580        1 
H       3.96941680      -2.41755589      -0.31151359        1 
