36
Lattice="0.0 0.0 0.0 0.0 0.0 0.0 0.0 0.0 0.0" Properties=species:S:1:pos:R:3:Z:I:1 pbc="F F F"
C      -1.20176653      -0.70381463      -0.66589142        6 
C       0.27449413      -0.19498034      -0.82577185        6 
C      -2.22718683       0.27874928      -0.12226061        6 
C       0.44773225       1.31687262      -0.76277333        6 
O      -3.39289563      -0.37023295       0.10510739        8 
O      -2.09242373       1.46220790       0.05164859        8 
O       0.70628629       1.78870460       0.46692888        8 
O       0.35807214       2.01305104      -1.74464077        8 
C       0.70674191       3.22103813       0.59412992        6 
C      -4.48542962       0.43772643       0.58213950        6 
C      -0.99411230      -1.90056178       0.30906075        6 
C      -0.27486159      -3.05225623      -0.42174444        6 
C       1.17928195      -2.50446294      -0.48213478        6 
C       1.01762878      -1.12078421       0.19985281        6 
O       0.01139478      -1.39061712       1.19406738        8 
H      -1.60177456      -1.04752900      -1.62240577        1 
H       0.61059967      -0.43768610      -1.83248418        1 
H      -0.28287521       3.60766768       0.34774684        1 
H      -4.72513923       1.21948463      -0.14025967        1 
H      -0.33224361      -3.96746022       0.16914500        1 
H      -0.70641575      -3.25633487      -1.40358376        1 
H       1.86040174      -3.12225529       0.10586249        1 
H       1.58171137      -2.42545135      -1.49175838        1 
H       0.94842624       3.42025712       1.63625031        1 
H       1.45054342       3.66617830      -0.06817940        1 
H      -4.23027921       0.89695742       1.53819899        1 
H      -5.32241547      -0.24738681       0.69739759        1 
H      -1.88028269      -2.17685267       0.87255691        1 
C       2.27156319      -0.59087941       0.86266271        6 
O       3.14656682      -0.17295320      -0.17399214        8 
H       2.73193477      -1.39088006       1.46009871        1 
H       2.02304705       0.24346331       1.52294586        1 
C       4.28770135       0.50864086       0.30979442        6 
H       4.87971235       0.80099875      -0.55762016        1 
H       4.89627580      -0.13594914       0.95961654        1 
H       4.00078941       1.40742108       0.87219092        1 
