36
Lattice="0.0 0.0 0.0 0.0 0.0 0.0 0.0 0.0 0.0" Properties=species:S:1:pos:R:3:Z:I:1 pbc="F F F"
C      -0.89056514       1.08666101       0.39033811        6 
C       0.22663382       0.02604290       0.64188558        6 
C      -2.31184247       0.60806276       0.18423936        6 
C       0.00532347      -1.36300575       0.05962235        6 
O      -2.68125790      -0.21940334       1.18673663        8 
O      -3.06596517       0.99912203      -0.67109100        8 
O      -1.06274527      -1.43597703      -0.75222164        8 
O       0.77721162      -2.28119000       0.21095389        8 
C      -1.26863433      -2.67988417      -1.44330574        6 
C      -4.01357736      -0.75284278       1.10341253        6 
C      -0.29617199       1.94708227      -0.75672626        6 
C       0.60015775       3.01344812      -0.11281358        6 
C       1.70932448       2.10253086       0.48693622        6 
C       1.38786811       0.72428968      -0.17012404        6 
O       0.68060993       1.08284324      -1.36862624        8 
H      -0.96511067       1.69898707       1.29579036        1 
H       0.48686775      -0.09462977       1.69149201        1 
H      -1.42755231      -3.48942296      -0.72925248        1 
H      -4.12553639      -1.34281019       0.19170161        1 
H       1.00311071       3.67698720      -0.87959820        1 
H       0.08140458       3.62085731       0.63188087        1 
H       2.70857789       2.43007789       0.19883050        1 
H       1.68533395       2.04594862       1.57583909        1 
H      -2.15335934      -2.52412765      -2.05647521        1 
H      -0.40484684      -2.91282211      -2.06716784        1 
H      -4.75212284       0.05016411       1.10378343        1 
H      -4.13096245      -1.38306305       1.98234136        1 
H      -1.02039849       2.27532930      -1.49638832        1 
C       2.61938332      -0.08925412      -0.50759555        6 
O       3.30073767      -0.34954485       0.70649218        8 
H       3.24860177       0.50022658      -1.19087693        1 
H       2.34851470      -1.02207588      -1.01023210        1 
C       4.25886224      -1.38619576       0.59178715        6 
H       4.72409370      -1.50109918       1.57110568        1 
H       5.03501769      -1.13504476      -0.14508812        1 
H       3.77910820      -2.33022344       0.30528020        1 
