36
Lattice="0.0 0.0 0.0 0.0 0.0 0.0 0.0 0.0 0.0" Properties=species:S:1:pos:R:3:Z:I:1 pbc="F F F"
C      -0.85560959       1.03764504       0.74592112        6 
C       0.33078879      -0.00628238       0.74068211        6 
C      -2.26218665       0.55328699       0.43914235        6 
C       0.06009087      -1.44786420       0.32239710        6 
O      -2.49805656       0.47473095      -0.88535775        8 
O      -3.09659656       0.32770758       1.28152211        8 
O      -1.24172550      -1.77149392       0.36847316        8 
O       0.92237760      -2.25424008       0.06803192        8 
C      -1.58159090      -3.13967623       0.08041048        6 
C      -3.79640821      -0.00470058      -1.26744247        6 
C      -0.32304943       2.10059194      -0.26246570        6 
C       0.69496293       2.99661749       0.46069587        6 
C       1.87070968       1.99848723       0.64126035        6 
C       1.36703462       0.75882001      -0.15626260        6 
O       0.50647018       1.33817644      -1.15028706        8 
H      -0.93521125       1.46273286       1.74653469        1 
H       0.72942678      -0.10862525       1.75283298        1 
H      -1.04571569      -3.81427518       0.74894807        1 
H      -4.57962021       0.64423468      -0.87253498        1 
H       0.97821565       3.83302529      -0.18036132        1 
H       0.31329262       3.39985504       1.40078740        1 
H       2.79332196       2.37427324       0.19815950        1 
H       2.08352625       1.75377998       1.68196552        1 
H      -2.65457001      -3.20827258       0.24467938        1 
H      -1.33166066      -3.38210221      -0.95368304        1 
H      -3.94958674      -1.01816886      -0.89249873        1 
H      -3.80159924       0.00497743      -2.35532897        1 
H      -1.09400470       2.60842002      -0.83513272        1 
C       2.48280449      -0.01564953      -0.82716211        6 
O       3.36801985      -0.44712391       0.19184069        8 
H       2.99590582       0.66105492      -1.52625873        1 
H       2.08863190      -0.86366815      -1.39242306        1 
C       4.21167842      -1.50865304      -0.21529590        6 
H       4.83899500      -1.76281095       0.63969923        1 
H       4.85790877      -1.21148916      -1.05392212        1 
H       3.62021489      -2.38508081      -0.50447644        1 
