36
Lattice="0.0 0.0 0.0 0.0 0.0 0.0 0.0 0.0 0.0" Properties=species:S:1:pos:R:3:Z:I:1 pbc="F F F"
C      -1.14704835      -0.61746880      -0.66447339        6 
C       0.31139179      -0.03364085      -0.66698638        6 
C      -2.23339832       0.24800275      -0.04508281        6 
C       0.45785367       1.36109811      -0.07693083        6 
O      -3.32783499      -0.49638417       0.22485227        8 
O      -2.18655483       1.43787882       0.13721185        8 
O       0.40366118       2.27821437      -1.06441650        8 
O       0.63114184       1.63629306       1.08369401        8 
C       0.38467996       3.65041385      -0.63705585        6 
C      -4.45784400       0.21319914       0.76935394        6 
C      -0.93120618      -1.97663893       0.05730767        6 
C      -0.20008173      -2.94992195      -0.88906388        6 
C       1.23811430      -2.35882833      -0.86737417        6 
C       1.06923910      -1.16425669       0.10907502        6 
O       0.07236302      -1.65065300       1.02536935        8 
H      -1.48468293      -0.78289294      -1.69216570        1 
H       0.67574305       0.03287544      -1.69030532        1 
H       1.29190365       3.89307933      -0.08136947        1 
H      -4.82272032       0.95296695       0.05495124        1 
H      -0.22176821      -3.95934820      -0.47536434        1 
H      -0.64659758      -2.98369414      -1.88509388        1 
H       1.95426112      -3.07242502      -0.45690915        1 
H       1.60067664      -2.04446954      -1.84584013        1 
H       0.32699238       4.23850981      -1.55068472        1 
H      -0.48865110       3.82738290      -0.00757348        1 
H      -4.17958374       0.71453003       1.69699540        1 
H      -5.21371012      -0.54682812       0.95385204        1 
H      -1.81477173      -2.36601028       0.55319472        1 
C       2.31782913      -0.76506358       0.86769391        6 
O       3.18636669      -0.13880834      -0.06509068        8 
H       2.78845952      -1.66215405       1.29543421        1 
H       2.05280183      -0.08017680       1.67713272        1 
C       4.32233501       0.44464161       0.54450395        6 
H       4.91375341       0.90187685      -0.24928125        1 
H       4.93493204      -0.31028658       1.05724373        1 
H       4.03058730       1.21620360       1.26923732        1 
