36
Lattice="0.0 0.0 0.0 0.0 0.0 0.0 0.0 0.0 0.0" Properties=species:S:1:pos:R:3:Z:I:1 pbc="F F F"
C      -0.87644492       1.02979267       0.44513404        6 
C       0.31884421       0.00634679       0.58037230        6 
C      -2.13760398       0.46389573      -0.16887574        6 
C       0.01907173      -1.33407596      -0.07061566        6 
O      -3.15405380       0.49009463       0.72385529        8 
O      -2.25795271       0.05981749      -1.29830283        8 
O      -0.82984492      -2.02848526       0.72819017        8 
O       0.40276548      -1.74487739      -1.13297315        8 
C      -1.32347248      -3.26682054       0.18552076        6 
C      -4.40852236      -0.04386492       0.26244385        6 
C      -0.21303134       2.14558294      -0.42313335        6 
C       0.64457036       3.01975944       0.50988137        6 
C       1.79603612       2.02591594       0.84136809        6 
C       1.46091194       0.82449012      -0.09006045        6 
O       0.77407812       1.44930535      -1.18588271        8 
H      -1.14196669       1.41226656       1.42916578        1 
H       0.52414982      -0.18880865       1.63177887        1 
H      -0.50060834      -3.95813423      -0.00191887        1 
H      -4.29945407      -1.09889376       0.00540662        1 
H       1.01540524       3.88920487      -0.03517883        1 
H       0.10156393       3.37140344       1.38902475        1 
H       2.77194055       2.43787915       0.58151775        1 
H       1.82757172       1.73406994       1.89173609        1 
H      -1.99428763      -3.66873189       0.94211191        1 
H      -1.85721452      -3.07923923      -0.74765343        1 
H      -4.75965744       0.50336198      -0.61356363        1 
H      -5.09904551       0.07691575       1.09417566        1 
H      -0.89256766       2.66633869      -1.09391308        1 
C       2.65935899       0.04956193      -0.59995423        6 
O       3.14829487      -0.72738174       0.48476351        8 
H       3.42808476       0.75387791      -0.94956216        1 
H       2.35823360      -0.59021140      -1.43248736        1 
C       4.17963315      -1.61658948       0.09924674        6 
H       4.47420844      -2.17352234       0.98921511        1 
H       5.05339929      -1.07379952      -0.28814720        1 
H       3.83035785      -2.31942307      -0.66888702        1 
