36
Lattice="0.0 0.0 0.0 0.0 0.0 0.0 0.0 0.0 0.0" Properties=species:S:1:pos:R:3:Z:I:1 pbc="F F F"
C      -1.03227882      -1.13851011      -0.61245364        6 
C       0.25952989      -0.24937094      -0.79724730        6 
C      -2.37667875      -0.46710838      -0.42519034        6 
C       0.02634656       1.24956747      -0.67227216        6 
O      -2.38150535       0.44458979       0.56216349        8 
O      -3.35832183      -0.75956509      -1.06661868        8 
O       0.13098723       1.72973187       0.57623957        8 
O      -0.19996818       1.94780279      -1.63311250        8 
C      -0.15600518       3.12792360       0.73348355        6 
C      -3.63393456       1.11189727       0.80391288        6 
C      -0.61404352      -2.03860349       0.59915071        6 
C       0.29065150      -3.16145916       0.06379439        6 
C       1.56309306      -2.34347115      -0.29814214        6 
C       1.20222674      -0.92874087       0.24926409        6 
O       0.30322912      -1.22326456       1.33081997        8 
H      -1.16953182      -1.75530399      -1.49920638        1 
H       0.64255315      -0.37618014      -1.80724178        1 
H      -1.18433386       3.33570814       0.43271119        1 
H      -4.41043296       0.38859038       1.05639354        1 
H       0.49441870      -3.88204252       0.85741023        1 
H      -0.14524024      -3.69549261      -0.78215641        1 
H       2.44714438      -2.72817152       0.21208854        1 
H       1.77817299      -2.32595036      -1.36679806        1 
H      -0.01819714       3.33460512       1.79277554        1 
H       0.52174968       3.73289945       0.12927387        1 
H      -3.93901227       1.67366118      -0.08038784        1 
H      -3.44566006       1.78112352       1.64046637        1 
H      -1.43322934      -2.34598514       1.24574079        1 
C       2.38387423      -0.12520635       0.75464790        6 
O       3.07312014       0.36358415      -0.38531833        8 
H       3.03760412      -0.77246953       1.35681679        1 
H       2.03464108       0.69868864       1.38245291        1 
C       4.14774201       1.22252358      -0.05463777        6 
H       4.59157623       1.55856280      -0.99172181        1 
H       4.91152957       0.70095219       0.53879214        1 
H       3.79620990       2.09544680       0.51236903        1 
