36
Lattice="0.0 0.0 0.0 0.0 0.0 0.0 0.0 0.0 0.0" Properties=species:S:1:pos:R:3:Z:I:1 pbc="F F F"
C      -1.14541584      -0.54897242      -0.84359988        6 
C       0.29501809       0.07014290      -0.73264653        6 
C      -2.16901268       0.03255414       0.14886899        6 
C       0.40550378       1.55024762      -0.40291635        6 
O      -2.83590241      -0.93367151       0.81226448        8 
O      -2.44131867       1.20121452       0.27177197        8 
O      -0.39626920       2.24012546      -1.23619631        8 
O       1.22574600       2.07611721       0.30901593        8 
C      -0.42331257       3.66569605      -1.06552135        6 
C      -3.84849836      -0.48667801       1.73151047        6 
C      -0.79581119      -2.00826040      -0.46359039        6 
C       0.19315151      -2.64070097      -1.47195623        6 
C       1.55312985      -2.05710701      -0.99140253        6 
C       1.06907310      -1.03745062       0.06352230        6 
O       0.01485488      -1.77851003       0.70647363        8 
H      -1.56172707      -0.42382702      -1.84452719        1 
H       0.69688042       0.07190708      -1.75157676        1 
H       0.56799904       4.09288783      -1.22565451        1 
H      -4.61336003       0.08966020       1.20889872        1 
H       0.17040742      -3.72850669      -1.39812697        1 
H      -0.04788295      -2.37266911      -2.50373322        1 
H       2.16343550      -2.81914284      -0.50364401        1 
H       2.14733163      -1.59758382      -1.78045764        1 
H      -1.12576923       4.03173908      -1.81101529        1 
H      -0.77291240       3.91475494      -0.06268667        1 
H      -3.40447683       0.13103966       2.51337300        1 
H      -4.27196983      -1.39413935       2.15620188        1 
H      -1.64731559      -2.62368821      -0.19726142        1 
C       2.10548435      -0.62354010       1.08516393        6 
O       3.23581314      -0.14842345       0.37547387        8 
H       2.36687263      -1.50489442       1.68916757        1 
H       1.70586417       0.14957475       1.74755820        1 
C       4.11486235       0.61446333       1.18159346        6 
H       4.93863846       0.93324100       0.54214789        1 
H       4.51796767       0.01622283       2.01140317        1 
H       3.60596860       1.49819679       1.58423343        1 
