36
Lattice="0.0 0.0 0.0 0.0 0.0 0.0 0.0 0.0 0.0" Properties=species:S:1:pos:R:3:Z:I:1 pbc="F F F"
C      -0.98126627      -1.03067520      -0.76409211        6 
C       0.32872388      -0.15880977      -0.84586748        6 
C      -2.28286736      -0.27673342      -0.54044544        6 
C       0.24085191       1.33603884      -0.60171749        6 
O      -2.70764946      -0.31365932       0.73313795        8 
O      -2.92283144       0.21167403      -1.44254702        8 
O      -0.73387596       1.68055603       0.25764931        8 
O       1.01634051       2.13185564      -1.07509923        8 
C      -0.86438128       3.08339903       0.54782321        6 
C      -3.92893706       0.39088120       1.00680256        6 
C      -0.60372596      -2.03567756       0.35959499        6 
C       0.37020959      -3.08556886      -0.20718075        6 
C       1.66971866      -2.24123385      -0.33970024        6 
C       1.21283944      -0.87837778       0.24366726        6 
O       0.24053507      -1.25679085       1.22245688        8 
H      -1.12372118      -1.53674448      -1.71982492        1 
H       0.79964071      -0.25345656      -1.82209634        1 
H      -1.10705678       3.63599524      -0.36092740        1 
H      -4.75614450      -0.03290442       0.43496037        1 
H       0.49669448      -3.90147301       0.50600776        1 
H       0.02846624      -3.51208245      -1.15245132        1 
H       2.47823816      -2.64880506       0.26851804        1 
H       2.03665744      -2.15036180      -1.36141549        1 
H      -1.67515308       3.15426294       1.26948079        1 
H       0.06195165       3.47277299       0.97191860        1 
H      -3.82143856       1.44583538       0.74880312        1 
H      -4.09913502       0.27232577       2.07468034        1 
H      -1.44620323      -2.41852914       0.92713155        1 
C       2.31271172      -0.06228816       0.88993208        6 
O       3.32791513       0.12474621      -0.07676844        8 
H       2.69391526      -0.60926885       1.76428330        1 
H       1.92410590       0.90153252       1.24421570        1 
C       4.22713446       1.16909315       0.24708468        6 
H       4.95964143       1.21964999      -0.55847573        1 
H       4.74910216       0.97243448       1.19440207        1 
H       3.70246956       2.13041595       0.31455766        1 
