36
Lattice="0.0 0.0 0.0 0.0 0.0 0.0 0.0 0.0 0.0" Properties=species:S:1:pos:R:3:Z:I:1 pbc="F F F"
C      -1.28380574      -0.82474463      -0.75926851        6 
C       0.11559323      -0.10934904      -0.78233759        6 
C      -2.50615934      -0.00042037      -0.38136738        6 
C       0.07576269       1.38333316      -0.47490941        6 
O      -2.56934610       0.24820633       0.93826942        8 
O      -3.37044154       0.30445192      -1.16705309        8 
O       1.31448179       1.90007882      -0.35635570        8 
O      -0.91759438       2.06672106      -0.44584247        8 
C       1.38664403       3.32584899      -0.16888255        6 
C      -3.65551751       1.08724233       1.36363499        6 
C      -1.00914073      -1.98616808       0.23835373        6 
C      -0.19843636      -3.08096474      -0.47734238        6 
C       1.18877444      -2.38828358      -0.58615947        6 
C       0.93814579      -1.05453058       0.17440480        6 
O      -0.04888693      -1.42454287       1.14520235        8 
H      -1.51224438      -1.21064472      -1.75191813        1 
H       0.54598194      -0.15833678      -1.78555066        1 
H       0.87863594       3.61661704       0.75182496        1 
H      -4.61591171       0.62249201       1.13377587        1 
H      -0.14818204      -3.97789418       0.14213155        1 
H      -0.62520526      -3.35763031      -1.44312456        1 
H       1.96675722      -2.95905009      -0.07736080        1 
H       1.51966620      -2.22389666      -1.61149211        1 
H       2.44851571       3.55482811      -0.11100442        1 
H       0.92698371       3.84473036      -1.01119998        1 
H      -3.59233486       2.05536897       0.86458626        1 
H      -3.53124577       1.19889505       2.43873784        1 
H      -1.88085163      -2.32024139       0.79471628        1 
C       2.16408945      -0.52698242       0.88955680        6 
O       3.19377841      -0.36630331      -0.06861895        8 
H       2.45486532      -1.26562349       1.65097227        1 
H       1.94744907       0.41833252       1.39638414        1 
C       4.31563709       0.32483735       0.43947752        6 
H       5.04321493       0.39759232      -0.36932712        1 
H       4.77251226      -0.21041907       1.28433395        1 
H       4.04187406       1.33625670       0.77019423        1 
