36
Lattice="0.0 0.0 0.0 0.0 0.0 0.0 0.0 0.0 0.0" Properties=species:S:1:pos:R:3:Z:I:1 pbc="F F F"
C      -1.10636604      -1.00789995      -0.47920365        6 
C       0.13258451      -0.06291913      -0.56929765        6 
C      -2.51822080      -0.50443864      -0.24913685        6 
C       0.04432271       1.26925143       0.15850014        6 
O      -2.62100731       0.81617811      -0.05619215        8 
O      -3.47494466      -1.23729684      -0.35929103        8 
O       0.38156491       2.27573951      -0.68278837        8 
O      -0.25564663       1.44564162       1.31079953        8 
C       0.34788583       3.59655616      -0.11853104        6 
C      -3.95398897       1.34036238       0.08959137        6 
C      -0.61765188      -2.12568873       0.50142798        6 
C       0.19060542      -3.14264848      -0.32166349        6 
C       1.41492730      -2.26093281      -0.71163431        6 
C       1.18165701      -0.98809529       0.15590642        6 
O       0.41041133      -1.48182300       1.25975129        8 
H      -1.21258763      -1.47228391      -1.46390050        1 
H       0.41464167       0.13084183      -1.60074359        1 
H       1.05076718       3.67865230       0.71242318        1 
H      -4.45079148       0.87790709       0.94312326        1 
H       0.49103707      -3.97885118       0.31175673        1 
H      -0.35874108      -3.53643802      -1.17830180        1 
H       2.35963053      -2.73220148      -0.43815376        1 
H       1.45881312      -2.02677920      -1.77577442        1 
H       0.63301685       4.26614327      -0.92726511        1 
H      -0.65550243       3.83161097       0.24065879        1 
H      -4.53723950       1.15373548      -0.81359409        1 
H      -3.82548237       2.40767273       0.25382153        1 
H      -1.38215881      -2.52605885       1.16186912        1 
C       2.43937377      -0.32077154       0.67005942        6 
O       3.12897635       0.20755979      -0.44970319        8 
H       3.05342456      -1.06669192       1.19519895        1 
H       2.18605814       0.46939810       1.38781548        1 
C       4.27330944       0.95678501      -0.08812821        6 
H       4.72101426       1.32638831      -1.01071421        1 
H       5.00755680       0.33709349       0.44542408        1 
H       4.00359414       1.80984018       0.54970931        1 
