36
Lattice="0.0 0.0 0.0 0.0 0.0 0.0 0.0 0.0 0.0" Properties=species:S:1:pos:R:3:Z:I:1 pbc="F F F"
C      -1.15173914      -0.50330498      -0.83990918        6 
C       0.31345162       0.03318570      -0.75513357        6 
C      -2.08747183       0.12024745       0.20340726        6 
C       0.46868625       1.50639135      -0.41291436        6 
O      -3.06658571      -0.73936955       0.55243340        8 
O      -2.04669657       1.25556275       0.60757471        8 
O      -0.26937585       2.22752133      -1.28670335        8 
O       1.25556445       2.00210443       0.35305557        8 
C      -0.28591695       3.64810683      -1.07667225        6 
C      -4.03952219      -0.24403816       1.49126814        6 
C      -0.89038692      -1.98040088      -0.45033829        6 
C       0.05521543      -2.67916062      -1.45307229        6 
C       1.44719713      -2.16515649      -0.98557995        6 
C       1.02831741      -1.10381204       0.05531771        6 
O      -0.06419830      -1.78002131       0.71496295        8 
H      -1.59954889      -0.36136630      -1.82495195        1 
H       0.71373581       0.01201163      -1.77356470        1 
H       0.72620702       4.05444733      -1.09837750        1 
H      -4.56069790       0.62121069       1.07894986        1 
H      -0.02631570      -3.76312195      -1.36380579        1 
H      -0.17704328      -2.41249539      -2.48703853        1 
H       2.01602024      -2.95352854      -0.48939016        1 
H       2.06289926      -1.75357058      -1.78458970        1 
H      -0.88104905       4.05555788      -1.89136896        1 
H      -0.75272653       3.87182075      -0.11596826        1 
H      -3.55360059       0.03866200       2.42587377        1 
H      -4.72997546      -1.06891940       1.65232480        1 
H      -1.77889719      -2.53741278      -0.17492387        1 
C       2.09035261      -0.72871703       1.06446799        6 
O       3.22261559      -0.28326115       0.33764050        8 
H       2.33618073      -1.61922912       1.66171066        1 
H       1.72314133       0.05352534       1.73442233        1 
C       4.13287102       0.45723831       1.13055367        6 
H       4.95265918       0.75851130       0.47756310        1 
H       4.53612470      -0.15260327       1.95169374        1 
H       3.65125553       1.35124100       1.54378961        1 
