36
Lattice="0.0 0.0 0.0 0.0 0.0 0.0 0.0 0.0 0.0" Properties=species:S:1:pos:R:3:Z:I:1 pbc="F F F"
C      -0.99967234      -1.01091395      -0.81899622        6 
C       0.28062834      -0.10762953      -0.81962640        6 
C      -2.30344795      -0.48346900      -0.23945397        6 
C       0.16595365       1.40209751      -0.66892006        6 
O      -2.22420219      -0.18470891       1.06696080        8 
O      -3.33857318      -0.46408610      -0.86499453        8 
O      -1.07836893       1.83488441      -0.40631810        8 
O       1.09056844       2.15350289      -0.87038002        8 
C      -1.26851465       3.26121676      -0.37163377        6 
C      -3.43001163       0.30287172       1.67321639        6 
C      -0.48032145      -2.19628498       0.05469859        6 
C       0.58988589      -2.99493395      -0.72069342        6 
C       1.83215220      -2.07079281      -0.56257838        6 
C       1.21793108      -0.87029305       0.19773382        6 
O       0.28052215      -1.52160962       1.06453822        8 
H      -1.24760784      -1.32854450      -1.83049745        1 
H       0.74535953      -0.18798721      -1.80493265        1 
H      -0.97378053       3.70690122      -1.32240710        1 
H      -4.22455078      -0.44273657       1.61178183        1 
H       0.75163674      -3.96673414      -0.25229921        1 
H       0.30608079      -3.16634530      -1.76100313        1 
H       2.59743063      -2.53683607       0.05956617        1 
H       2.29637511      -1.77978178      -1.50367413        1 
H      -2.33164178       3.40496463      -0.19289747        1 
H      -0.67833462       3.70236947       0.43260711        1 
H      -3.76097718       1.21689902       1.17618653        1 
H      -3.17175858       0.50309535       2.71084738        1 
H      -1.26349197      -2.78894698       0.52227367        1 
C       2.20051611      -0.05542289       1.01354014        6 
O       3.30072324       0.25360158       0.17990601        8 
H       2.51904845      -0.65709063       1.87682695        1 
H       1.72483923       0.85633960       1.39469167        1 
C       4.06132241       1.35724626       0.63529821        6 
H       4.88139642       1.49055809      -0.07041614        1 
H       4.47703375       1.17422845       1.63645721        1 
H       3.45216419       2.26896919       0.65375690        1 
