36
Lattice="0.0 0.0 0.0 0.0 0.0 0.0 0.0 0.0 0.0" Properties=species:S:1:pos:R:3:Z:I:1 pbc="F F F"
C      -1.32542748      -0.58571471      -0.76014052        6 
C       0.16018077      -0.13776897      -0.85332504        6 
C      -2.16478487       0.28223795       0.16894962        6 
C       0.30917002       1.37723964      -0.89349961        6 
O      -3.43647552      -0.17571966       0.19321654        8 
O      -1.79173030       1.23642712       0.80109231        8 
O       1.31805391       1.86868908      -0.16098602        8 
O      -0.41742922       2.06193016      -1.57333969        8 
C       1.45889042       3.30179602      -0.18044151        6 
C      -4.35093185       0.54171600       1.04311545        6 
C      -1.13633304      -1.94963399      -0.03922214        6 
C      -0.31131588      -2.92926393      -0.90481842        6 
C       1.13805873      -2.41868462      -0.65139921        6 
C       0.85851521      -1.12699863       0.15442098        6 
O      -0.22411123      -1.56733536       1.00280992        8 
H      -1.82366958      -0.66803949      -1.72522572        1 
H       0.51019301      -0.41033685      -1.85429695        1 
H       0.54486266       3.77268393       0.18286481        1 
H      -4.42882223       1.58204427       0.72397111        1 
H      -0.44410331      -3.95479865      -0.55817021        1 
H      -0.60362703      -2.88960324      -1.95657689        1 
H       1.70032789      -3.11644349      -0.02817833        1 
H       1.71029140      -2.23631946      -1.56064645        1 
H       2.29482509       3.51818688       0.48148153        1 
H       1.67006001       3.65106407      -1.19205411        1 
H      -4.01343564       0.50708142       2.08004516        1 
H      -5.30684691       0.03419132       0.93340501        1 
H      -2.04628533      -2.35352697       0.39642612        1 
C       2.00395514      -0.65216590       1.01890214        6 
O       3.12561067      -0.45372108       0.17444819        8 
H       2.21689071      -1.43011198       1.76634053        1 
H       1.73402608       0.27081501       1.53936520        1 
C       4.17979321       0.23552124       0.81417456        6 
H       4.99042823       0.32880355       0.09085073        1 
H       4.54657712      -0.31353223       1.69334649        1 
H       3.86092275       1.23747914       1.13128411        1 
