36
Lattice="0.0 0.0 0.0 0.0 0.0 0.0 0.0 0.0 0.0" Properties=species:S:1:pos:R:3:Z:I:1 pbc="F F F"
C      -1.03276923      -1.17926959      -0.60107972        6 
C       0.17240151      -0.16854985      -0.69340100        6 
C      -2.24520317      -0.67723076       0.16617483        6 
C      -0.10068411       1.19834960      -0.10227152        6 
O      -2.76821842       0.40675496      -0.44774523        8 
O      -2.71640964      -1.18032603       1.15229597        8 
O      -0.00966933       2.15721938      -1.04423661        8 
O      -0.36650043       1.42442086       1.05439270        8 
C      -0.23870366       3.50166735      -0.59143473        6 
C      -3.86409707       1.04788635       0.23106175        6 
C      -0.36742953      -2.38552986       0.09153486        6 
C       0.60823015      -3.07672214      -0.88508099        6 
C       1.79892615      -2.07248299      -0.88338749        6 
C       1.27307267      -0.98243267       0.08518200        6 
O       0.51350532      -1.74728046       1.02684586        8 
H      -1.38160456      -1.42050368      -1.60836642        1 
H       0.46952686      -0.02270409      -1.72841581        1 
H       0.48620975       3.77309401       0.17779300        1 
H      -3.54107943       1.39012758       1.21528807        1 
H       0.90810118      -4.05005513      -0.49466567        1 
H       0.17284123      -3.23016397      -1.87496101        1 
H       2.70097432      -2.52643264      -0.46884145        1 
H       2.04364562      -1.67701511      -1.86923602        1 
H      -0.11703058       4.12935734      -1.47144860        1 
H      -1.24645055       3.60151890      -0.18454692        1 
H      -4.70297384       0.35936333       0.34133972        1 
H      -4.14080400       1.89086232      -0.39849937        1 
H      -1.06015058      -3.02992753       0.62490417        1 
C       2.31790876      -0.17397751       0.82306340        6 
O       2.91566514       0.70714147      -0.11532392        8 
H       3.06645913      -0.85161896       1.25709562        1 
H       1.83986624       0.38384871       1.63588202        1 
C       3.82808173       1.61073541       0.47953295        6 
H       4.19869759       2.26166644      -0.31262482        1 
H       4.67633675       1.08256466       0.93669922        1 
H       3.33579417       2.21989704       1.24969609        1 
