36
Lattice="0.0 0.0 0.0 0.0 0.0 0.0 0.0 0.0 0.0" Properties=species:S:1:pos:R:3:Z:I:1 pbc="F F F"
C      -0.78641985       0.97195254       0.66385394        6 
C       0.37224452      -0.09961325       0.64985616        6 
C      -2.22416283       0.49344055       0.61216283        6 
C       0.06328068      -1.45494099       0.00778929        6 
O      -2.75812443       0.59656535      -0.62291678        8 
O      -2.83072692       0.08061538       1.56896574        8 
O      -1.20146690      -1.84240355       0.24492507        8 
O       0.84797759      -2.14696304      -0.59274168        8 
C      -1.59517632      -3.12107520      -0.28355927        6 
C      -4.10711988       0.12058463      -0.76511035        6 
C      -0.30482368       1.97479398      -0.43049070        6 
C       0.62880723       2.97589622       0.26203412        6 
C       1.78449567       2.01615475       0.66065772        6 
C       1.43593439       0.72398140      -0.14786542        6 
O       0.61896558       1.21384596      -1.22693307        8 
H      -0.73566217       1.46050741       1.63916429        1 
H       0.70557874      -0.32041819       1.66577912        1 
H      -0.95789953      -3.91169219       0.11433409        1 
H      -4.78215296       0.68006154      -0.11572621        1 
H       0.96393371       3.73285737      -0.44950279        1 
H       0.16521402       3.48087154       1.11224760        1 
H       2.75927036       2.39831952       0.35745770        1 
H       1.82955683       1.82134396       1.73319828        1 
H      -2.62447701      -3.25938048       0.03969797        1 
H      -1.52709513      -3.11701818      -1.37255258        1 
H      -4.16221388      -0.93875960      -0.50950734        1 
H      -4.36210959       0.27704063      -1.81105878        1 
H      -1.08716256       2.37879120      -1.06510334        1 
C       2.66413702       0.01876689      -0.68743076        6 
O       3.35520906      -0.51383347       0.43167368        8 
H       3.28771916       0.75790271      -1.21219302        1 
H       2.38665430      -0.76910057      -1.38811469        1 
C       4.38926585      -1.40840185       0.06682332        6 
H       4.84118439      -1.77068075       0.99071586        1 
H       5.16088671      -0.90736729      -0.53509056        1 
H       3.98999751      -2.25922249      -0.49940531        1 
