36
Lattice="0.0 0.0 0.0 0.0 0.0 0.0 0.0 0.0 0.0" Properties=species:S:1:pos:R:3:Z:I:1 pbc="F F F"
C      -1.42285826      -0.62904065      -0.87829507        6 
C       0.04742168      -0.11643405      -0.85029794        6 
C      -2.52350021       0.16643232      -0.18706739        6 
C       0.25731950       1.37813652      -0.67338657        6 
O      -2.21856565       0.53885076       1.06052324        8 
O      -3.62286364       0.29806404      -0.67697161        8 
O       1.54057106       1.69148015      -0.95868581        8 
O      -0.56172844       2.20325853      -0.35573086        8 
C       1.89676542       3.07839043      -0.82702117        6 
C      -3.22906452       1.27979336       1.76245092        6 
C      -1.23465724      -1.96949806      -0.10065193        6 
C      -0.35549023      -2.94984552      -0.91447382        6 
C       1.07285645      -2.39345631      -0.63037262        6 
C       0.73079101      -1.11509074       0.16969764        6 
O      -0.37032071      -1.56924373       0.96869395        8 
H      -1.77348601      -0.79091509      -1.89618061        1 
H       0.48959059      -0.31489707      -1.82880955        1 
H       1.72957569       3.42034098       0.19585615        1 
H      -4.15020773       0.69979486       1.83814994        1 
H      -0.47062444      -3.96723997      -0.53853264        1 
H      -0.61449011      -2.95296460      -1.97525970        1 
H       1.64587401      -3.07279554       0.00276184        1 
H       1.65859766      -2.18869994      -1.52575977        1 
H       2.95321123       3.12958551      -1.08118101        1 
H       1.30676739       3.69246045      -1.50926673        1 
H      -3.43179687       2.21828279       1.24391773        1 
H      -2.81287188       1.47134193       2.74901507        1 
H      -2.15387582      -2.38659903       0.30517506        1 
C       1.82056976      -0.59261111       1.08252301        6 
O       3.03438517      -0.55097300       0.35760801        8 
H       1.90245250      -1.27281427       1.94233501        1 
H       1.55697392       0.40215653       1.46728735        1 
C       4.06076199       0.13934599       1.03947709        6 
H       4.94366624       0.11546317       0.40045698        1 
H       4.29991726      -0.33781875       2.00052470        1 
H       3.78004821       1.18546363       1.22614735        1 
