36
Lattice="0.0 0.0 0.0 0.0 0.0 0.0 0.0 0.0 0.0" Properties=species:S:1:pos:R:3:Z:I:1 pbc="F F F"
C      -1.32295239      -0.71151271      -0.60592171        6 
C       0.09350944      -0.06697993      -0.71560729        6 
C      -2.32754924       0.00879177       0.28420463        6 
C       0.14301151       1.43223149      -0.46908570        6 
O      -3.47929080       0.21387127      -0.39887285        8 
O      -2.17659001       0.30710778       1.43914558        8 
O       1.40225442       1.90021107      -0.58743163        8 
O      -0.80498971       2.14613491      -0.25595062        8 
C       1.56468084       3.31969996      -0.41610557        6 
C      -4.51639813       0.89979475       0.32543140        6 
C      -0.94597145      -2.05493288       0.08667710        6 
C      -0.12807146      -2.94336052      -0.87892913        6 
C       1.27753556      -2.27965648      -0.78404571        6 
C       0.97447257      -1.06954548       0.13455309        6 
O       0.02487983      -1.63225981       1.04827302        8 
H      -1.77408317      -0.86105562      -1.58505863        1 
H       0.42795337      -0.14862483      -1.75393304        1 
H       1.25412340       3.62008189       0.58601475        1 
H      -4.17409566       1.89409842       0.61636427        1 
H      -0.10913096      -3.97557269      -0.52648668        1 
H      -0.54088566      -2.94148992      -1.89016721        1 
H       1.99437311      -2.93527754      -0.28772786        1 
H       1.69914200      -1.98623562      -1.74461324        1 
H       2.62619506       3.50773844      -0.56221258        1 
H       0.97303707       3.86465323      -1.15310416        1 
H      -4.79609364       0.33969115       1.21915887        1 
H      -5.35587250       0.96783231      -0.36340786        1 
H      -1.77259912      -2.54598961       0.59597109        1 
C       2.15802189      -0.53807922       0.91457065        6 
O       3.23319821      -0.34153035       0.01481968        8 
H       2.42419536      -1.28161396       1.67967569        1 
H       1.89625247       0.39592199       1.42572482        1 
C       4.30178922       0.38395603       0.58528242        6 
H       5.07217506       0.47872221      -0.18051096        1 
H       4.72606952      -0.13585254       1.45646154        1 
H       3.97841366       1.38655063       0.89792029        1 
