36
Lattice="0.0 0.0 0.0 0.0 0.0 0.0 0.0 0.0 0.0" Properties=species:S:1:pos:R:3:Z:I:1 pbc="F F F"
C      -0.99772111      -1.00379334      -0.77504950        6 
C       0.34806946      -0.18770737      -0.87335397        6 
C      -2.21926966      -0.14447689      -0.49150774        6 
C       0.21492945       1.31287413      -0.69317633        6 
O      -2.82059235      -0.44106367       0.67213221        8 
O      -2.63489684       0.68553597      -1.26526068        8 
O      -0.36257945       1.63459819       0.48519064        8 
O       0.57778739       2.12954351      -1.50092160        8 
C      -0.64954364       3.03000141       0.68406128        6 
C      -3.98402972       0.34081088       0.99699167        6 
C      -0.63446513      -2.05599975       0.30111299        6 
C       0.32706182      -3.09797326      -0.30766734        6 
C       1.64906450      -2.28039689      -0.37810976        6 
C       1.20037615      -0.92329529       0.22201546        6 
O       0.21899419      -1.31778758       1.18876211        8 
H      -1.20512409      -1.46938652      -1.74121221        1 
H       0.80425210      -0.30962833      -1.85251046        1 
H      -1.36328609       3.37220695      -0.06729000        1 
H      -4.76070942       0.20274342       0.24334754        1 
H       0.42420943      -3.95383070       0.36200429        1 
H      -0.00998471      -3.46642100      -1.27893003        1 
H       2.42416142      -2.72023797       0.25153801        1 
H       2.05298197      -2.17653370      -1.38469704        1 
H      -1.07745899       3.09805797       1.68205282        1 
H       0.26210799       3.62485805       0.61415847        1 
H      -3.72361706       1.39852915       1.05449342        1 
H      -4.31683817      -0.02518809       1.96566707        1 
H      -1.48085210      -2.45136243       0.85371492        1 
C       2.29095248      -0.11688660       0.89426934        6 
O       3.22257683       0.25104245      -0.10658889        8 
H       2.76798250      -0.73090746       1.67196412        1 
H       1.86084348       0.76825900       1.37951546        1 
C       4.20363854       1.16109763       0.35195681        6 
H       4.85663410       1.38040251      -0.49256559        1 
H       4.80044842       0.73064919       1.16829000        1 
H       3.74502203       2.09585900       0.70206545        1 
