36
Lattice="0.0 0.0 0.0 0.0 0.0 0.0 0.0 0.0 0.0" Properties=species:S:1:pos:R:3:Z:I:1 pbc="F F F"
C      -1.16747022      -0.67456930      -0.44773690        6 
C       0.22447807       0.03211942      -0.57404495        6 
C      -2.36527368       0.11591398       0.03677063        6 
C       0.37756748       1.38534273       0.10681882        6 
O      -3.48202816      -0.38469082      -0.55760512        8 
O      -2.40120216       0.99879025       0.85183189        8 
O       0.48279263       2.35663156      -0.83408858        8 
O       0.36520759       1.61023671       1.28697099        8 
C       0.56296846       3.70083323      -0.32841270        6 
C      -4.73107187       0.18875683      -0.12967507        6 
C      -0.82985856      -1.90647815       0.46005853        6 
C      -0.20535891      -2.99137023      -0.43591293        6 
C       1.15533285      -2.31773682      -0.77775020        6 
C       1.12044558      -1.05256340       0.12751834        6 
O       0.28814078      -1.46205371       1.22461661        8 
H      -1.45149538      -1.04249606      -1.43368200        1 
H       0.49627707       0.15661221      -1.61899713        1 
H       1.45871037       3.82734036       0.28230576        1 
H      -4.75642129       1.25711469      -0.34986803        1 
H      -0.06189446      -3.90786933       0.13926930        1 
H      -0.81245401      -3.22831222      -1.31170750        1 
H       1.99908433      -2.95330099      -0.50547276        1 
H       1.26068269      -2.06227870      -1.83260164        1 
H       0.60783274       4.33993251      -1.20779506        1 
H      -0.31669132       3.93125519       0.27469671        1 
H      -4.87220629       0.04218227       0.94248190        1 
H      -5.49932882      -0.33648758      -0.69300893        1 
H      -1.63225863      -2.22377998       1.12236988        1 
C       2.46396855      -0.59394628       0.65459291        6 
O       3.17463228      -0.03417059      -0.43906961        8 
H       3.00386760      -1.45592595       1.07213533        1 
H       2.32037799       0.14385231       1.45058032        1 
C       4.43750929       0.48530494      -0.06756747        6 
H       4.89654714       0.89122075      -0.96923246        1 
H       5.08714683      -0.29935679       0.34468682        1 
H       4.33466001       1.28540870       0.67820743        1 
