36
Lattice="0.0 0.0 0.0 0.0 0.0 0.0 0.0 0.0 0.0" Properties=species:S:1:pos:R:3:Z:I:1 pbc="F F F"
C      -1.00657454      -0.83195478      -0.48014162        6 
C       0.32238769      -0.00364556      -0.59935169        6 
C      -2.20495830      -0.14285104       0.13230591        6 
C       0.24560801       1.39379050       0.00023620        6 
O      -3.33320487      -0.54180228      -0.50497844        8 
O      -2.21123939       0.60490024       1.07631518        8 
O      -0.35608736       2.21557040      -0.89408984        8 
O       0.60242479       1.75160275       1.09061178        8 
C      -0.65340699       3.54100325      -0.41869033        6 
C      -4.56942523      -0.02222125       0.01909360        6 
C      -0.52877805      -2.04892731       0.38460060        6 
C       0.22320956      -3.02385601      -0.53941225        6 
C       1.52110476      -2.20813435      -0.80912120        6 
C       1.31918869      -0.96958664       0.11147584        6 
O       0.51799607      -1.50017179       1.18277452        8 
H      -1.31518214      -1.18125903      -1.46415901        1 
H       0.57898515       0.12342850      -1.64966417        1 
H       0.26477807       4.07026798      -0.15949065        1 
H      -4.57942092       1.06716272      -0.04071732        1 
H       0.43972784      -3.94964802      -0.00370843        1 
H      -0.33708604      -3.27380653      -1.44229944        1 
H       2.41136018      -2.75679545      -0.49910623        1 
H       1.64936064      -1.92763914      -1.85496690        1 
H      -1.16060045       4.03812271      -1.24307185        1 
H      -1.29939681       3.48517521       0.45872678        1 
H      -4.70187723      -0.32504345       1.05891359        1 
H      -5.35073921      -0.44740189      -0.60709890        1 
H      -1.29330644      -2.48536459       1.02408097        1 
C       2.59332491      -0.36634055       0.66680813        6 
O       3.22502491       0.32548076      -0.40170873        8 
H       3.24271047      -1.16819769       1.04635829        1 
H       2.34998085       0.31587231       1.48486335        1 
C       4.34558721       1.08005155       0.02119192        6 
H       4.75369129       1.57268378      -0.86180078        1 
H       5.11956263       0.43600143       0.46186625        1 
H       4.05516701       1.83965173       0.75881584        1 
