36
Lattice="0.0 0.0 0.0 0.0 0.0 0.0 0.0 0.0 0.0" Properties=species:S:1:pos:R:3:Z:I:1 pbc="F F F"
C      -1.06641797      -0.99686320      -0.81471156        6 
C       0.18626736      -0.07668644      -0.78753150        6 
C      -2.12977996      -0.77297098       0.27508089        6 
C      -0.00438016       1.42460216      -0.68803575        6 
O      -2.12348795       0.45933680       0.80946448        8 
O      -2.82624601      -1.66257275       0.70183984        8 
O      -1.14828208       1.78318436      -1.31279673        8 
O       0.83359835       2.22595085      -0.35402281        8 
C      -1.39105720       3.19340850      -1.43173702        6 
C      -2.99740858       0.66133027       1.93602415        6 
C      -0.37145208      -2.31574838      -0.36479201        6 
C       0.77486494      -2.73996085      -1.30973629        6 
C       1.94451867      -1.83045050      -0.82772562        6 
C       1.18415004      -0.88237677       0.12300650        6 
O       0.32075937      -1.81905293       0.80217079        8 
H      -1.54793700      -1.04257957      -1.79189415        1 
H       0.59703373      -0.12320144      -1.80429371        1 
H      -0.58881297       3.67797541      -1.99070500        1 
H      -2.73037261      -0.01879151       2.74586638        1 
H       1.00537870      -3.79756889      -1.17817158        1 
H       0.51724465      -2.58481119      -2.36031919        1 
H       2.68267731      -2.40000410      -0.26085436        1 
H       2.46138353      -1.30187772      -1.62803284        1 
H      -2.33642300       3.28063152      -1.96312586        1 
H      -1.46654238       3.65086563      -0.44362489        1 
H      -4.03567953       0.49055128       1.64883010        1 
H      -2.84639335       1.69620047       2.23527893        1 
H      -1.06512351      -3.09724465      -0.07388510        1 
C       2.02528025      -0.12970050       1.13114898        6 
O       3.13249361       0.42810871       0.44682135        8 
H       2.36206392      -0.83930465       1.90105316        1 
H       1.42979535       0.65037466       1.61790273        1 
C       3.72602721       1.51440131       1.13338424        6 
H       4.57366270       1.84466087       0.53218922        1 
H       4.09002117       1.21313671       2.12628644        1 
H       3.01411139       2.34117465       1.23907055        1 
