36
Lattice="0.0 0.0 0.0 0.0 0.0 0.0 0.0 0.0 0.0" Properties=species:S:1:pos:R:3:Z:I:1 pbc="F F F"
C      -1.14840884      -0.98195167      -0.77302832        6 
C       0.24798134      -0.26749026      -0.90059124        6 
C      -2.41940220      -0.28191929      -0.31235612        6 
C       0.36699706       1.24651426      -0.94595281        6 
O      -2.31403898       0.34091405       0.86527041        8 
O      -3.47537887      -0.43838450      -0.88686246        8 
O      -0.28403790       1.88557070       0.03936996        8 
O       1.05170851       1.81969767      -1.76068291        8 
C      -0.15436099       3.31779154       0.05596735        6 
C      -3.52893425       0.88804747       1.40410695        6 
C      -0.78940994      -2.07210920       0.28879029        6 
C       0.17423390      -3.11327455      -0.32423300        6 
C       1.52501852      -2.34114525      -0.27657016        6 
C       1.05987969      -0.96868536       0.26510781        6 
O       0.04118077      -1.34617861       1.19810582        8 
H      -1.41856381      -1.43114386      -1.72724542        1 
H       0.68540943      -0.56902204      -1.85001638        1 
H      -0.52761169       3.74646140      -0.87521849        1 
H      -4.25452256       0.09542388       1.59556180        1 
H       0.20438779      -4.01154068       0.29383095        1 
H      -0.12219589      -3.40810408      -1.33269259        1 
H       2.21742390      -2.79472341       0.43477732        1 
H       2.02937186      -2.26419051      -1.23882730        1 
H      -0.75357068       3.65076658       0.90068339        1 
H       0.88991306       3.60677811       0.18681220        1 
H      -3.96538569       1.61009662       0.71208051        1 
H      -3.23700024       1.37269168       2.33311633        1 
H      -1.64684599      -2.48061920       0.81953457        1 
C       2.11588201      -0.14813890       0.97329123        6 
O       3.16945002       0.07690328       0.05575951        8 
H       2.46888294      -0.70372507       1.85392856        1 
H       1.68461133       0.79881044       1.32289482        1 
C       4.09777262       1.04831327       0.49650370        6 
H       4.85607955       1.14192473      -0.28055219        1 
H       4.57910025       0.74749111       1.43762927        1 
H       3.61214287       2.02316665       0.64063955        1 
