36
Lattice="0.0 0.0 0.0 0.0 0.0 0.0 0.0 0.0 0.0" Properties=species:S:1:pos:R:3:Z:I:1 pbc="F F F"
C      -1.23750425      -1.02939581      -0.70486633        6 
C       0.13409593      -0.27926134      -0.83387177        6 
C      -2.41615110      -0.26061929      -0.13668443        6 
C      -0.04904007       1.23173063      -0.87966452        6 
O      -2.05710141       0.61737165       0.81657155        8 
O      -3.56228963      -0.48349869      -0.44426825        8 
O       0.76749626       1.93877320      -0.08601294        8 
O      -0.86340101       1.74239389      -1.61263829        8 
C       0.60852693       3.36877409      -0.14191420        6 
C      -3.12649501       1.35123952       1.43854351        6 
C      -0.84611621      -2.15612798       0.29656032        6 
C       0.07473970      -3.17499577      -0.40580121        6 
C       1.41693415      -2.38934664      -0.43348959        6 
C       1.00580686      -1.04279873       0.22423706        6 
O       0.03747572      -1.47552554       1.19631564        8 
H      -1.57649484      -1.43721766      -1.65487750        1 
H       0.53789132      -0.49281509      -1.82675955        1 
H      -0.41337211       3.64742774       0.11832869        1 
H      -3.80518343       0.66991003       1.95399623        1 
H       0.15579055      -4.08679072       0.18763833        1 
H      -0.29021589      -3.44754797      -1.39779549        1 
H       2.17365470      -2.87671071       0.18321174        1 
H       1.83288910      -2.25924575      -1.43234442        1 
H       1.31337466       3.76573396       0.58551069        1 
H       0.83806315       3.73885514      -1.14200448        1 
H      -3.68305734       1.91740326       0.69037566        1 
H      -2.64329805       2.01862096       2.14868181        1 
H      -1.68340730      -2.57651572       0.84986340        1 
C       2.14124731      -0.32882430       0.92535370        6 
O       3.08835494       0.03587303      -0.06545668        8 
H       2.59041736      -1.01890062       1.65434450        1 
H       1.77159719       0.55051072       1.45861306        1 
C       4.09590939       0.89573165       0.42630857        6 
H       4.76854323       1.11283309      -0.40390568        1 
H       4.66825919       0.42386962       1.23752690        1 
H       3.66609163       1.83592350       0.79761024        1 
