36
Lattice="0.0 0.0 0.0 0.0 0.0 0.0 0.0 0.0 0.0" Properties=species:S:1:pos:R:3:Z:I:1 pbc="F F F"
C      -1.18510135      -0.46089502      -0.86476463        6 
C       0.27415483       0.07505714      -0.76333308        6 
C      -2.10926206       0.06853716       0.24709494        6 
C       0.48513657       1.55627106      -0.49738299        6 
O      -3.02239456      -0.86212279       0.60237303        8 
O      -2.12954446       1.18915518       0.68913859        8 
O      -0.44843118       2.26783709      -1.15999554        8 
O       1.47171733       2.05685601      -0.01454424        8 
C      -0.34342939       3.69709352      -1.06860472        6 
C      -3.97189305      -0.46425519       1.60715215        6 
C      -0.89009193      -1.95233496      -0.55176111        6 
C       0.10736787      -2.58413730      -1.55180614        6 
C       1.47566081      -2.08568418      -0.99883792        6 
C       0.99511301      -1.06052539       0.04946382        6 
O      -0.10423155      -1.78121385       0.64794075        8 
H      -1.65070090      -0.26211731      -1.83089304        1 
H       0.67669926       0.02946025      -1.78284904        1 
H       0.61814805       4.03986265      -1.45410313        1 
H      -4.56634077       0.38200910       1.25930957        1 
H       0.03350407      -3.67185249      -1.53065524        1 
H      -0.08197684      -2.25743634      -2.57734453        1 
H       2.02127248      -2.88842672      -0.50007195        1 
H       2.12902200      -1.64445894      -1.75062951        1 
H      -1.16150505       4.08580914      -1.67115154        1 
H      -0.45440525       4.01397792      -0.03050708        1 
H      -3.45595750      -0.18765092       2.52753551        1 
H      -4.60212945      -1.33607591       1.76923540        1 
H      -1.76711366      -2.54804411      -0.32721172        1 
C       2.00346923      -0.67633308       1.11127552        6 
O       3.22462698      -0.37639703       0.45907208        8 
H       2.12801179      -1.52864508       1.79525079        1 
H       1.64524454       0.18328078       1.68619164        1 
C       4.09708168       0.41257850       1.24747926        6 
H       5.00214918       0.56985736       0.65991974        1 
H       4.36345671      -0.09849963       2.18377245        1 
H       3.64134660       1.38270939       1.47711518        1 
