36
Lattice="0.0 0.0 0.0 0.0 0.0 0.0 0.0 0.0 0.0" Properties=species:S:1:pos:R:3:Z:I:1 pbc="F F F"
C      -1.01261707       1.01110279       0.81263925        6 
C       0.23315112       0.08139615       0.79494783        6 
C      -2.22064307       0.62096889      -0.02305705        6 
C       0.01250020      -1.41462797       0.65416653        6 
O      -1.91090557      -0.13067441      -1.09243789        8 
O      -3.32767130       1.06101940       0.18444722        8 
O      -1.24909985      -1.75821019       0.99256056        8 
O       0.88524512      -2.23137524       0.48725439        8 
C      -1.53596842      -3.16627039       1.04183181        6 
C      -2.99034376      -0.43459753      -1.99092905        6 
C      -0.39567296       2.26569759       0.11485057        6 
C       0.70651904       2.89288163       0.99942188        6 
C       1.90387247       1.93674587       0.72067837        6 
C       1.22298945       0.85536087      -0.15208443        6 
O       0.34223469       1.66183685      -0.95600573        8 
H      -1.37612907       1.22699337       1.81534171        1 
H       0.67002828       0.11387068       1.79973189        1 
H      -0.88733791      -3.66466269       1.76363772        1 
H      -3.42828498       0.48279828      -2.38669814        1 
H       0.92071900       3.91201069       0.67526610        1 
H       0.41779128       2.93013901       2.05222293        1 
H       2.68158556       2.43368124       0.13892502        1 
H       2.36393042       1.52454237       1.61802191        1 
H      -2.57798315      -3.23748856       1.34597775        1 
H      -1.39193060      -3.61680497       0.05848556        1 
H      -3.76392339      -1.00935857      -1.47831312        1 
H      -2.54380106      -1.02115593      -2.79096982        1 
H      -1.13142237       2.95866357      -0.28765271        1 
C       2.15353734       0.05645145      -1.03971236        6 
O       3.22278160      -0.40619566      -0.23482268        8 
H       2.52354441       0.71606795      -1.83810634        1 
H       1.62031176      -0.77927818      -1.50515837        1 
C       3.90707191      -1.51277430      -0.79285530        6 
H       4.71264024      -1.76866964      -0.10393900        1 
H       4.34061975      -1.26483387      -1.77226725        1 
H       3.23460176      -2.37236289      -0.89709852        1 
