36
Lattice="0.0 0.0 0.0 0.0 0.0 0.0 0.0 0.0 0.0" Properties=species:S:1:pos:R:3:Z:I:1 pbc="F F F"
C      -1.15378356      -1.02450026      -0.45640820        6 
C       0.08623083      -0.08849644      -0.57749148        6 
C      -2.48894858      -0.41398347      -0.08050524        6 
C      -0.04180646       1.21158512       0.19243021        6 
O      -2.66621889       0.77539636      -0.69003788        8 
O      -3.35554128      -0.98769095       0.53130329        8 
O       0.65760127       2.19558383      -0.41456957        8 
O      -0.64512022       1.36801305       1.22465295        8 
C       0.64796226       3.46996762       0.25191300        6 
C      -3.92298417       1.43237028      -0.44530152        6 
C      -0.63915482      -2.15716663       0.47080236        6 
C       0.16288556      -3.14788528      -0.39090880        6 
C       1.39238441      -2.26503198      -0.76082658        6 
C       1.15609780      -1.00808002       0.12480301        6 
O       0.40381533      -1.52259440       1.22929795        8 
H      -1.35772113      -1.43947282      -1.45023226        1 
H       0.36140877       0.13237648      -1.60557943        1 
H       1.07278817       3.38209209       1.25341642        1 
H      -4.02944236       1.64997337       0.61825287        1 
H       0.46174405      -4.00794453       0.21010685        1 
H      -0.39230532      -3.51010174      -1.25821928        1 
H       2.33339483      -2.74256756      -0.48510879        1 
H       1.44840087      -2.01368420      -1.82031882        1 
H       1.25589094       4.12602518      -0.36730038        1 
H      -0.37155491       3.85089974       0.33076025        1 
H      -4.75359365       0.80561658      -0.77332814        1 
H      -3.88541442       2.35334169      -1.02297674        1 
H      -1.39019600      -2.57198584       1.13658439        1 
C       2.41303157      -0.32938477       0.62572158        6 
O       3.14669522       0.10056661      -0.50584778        8 
H       2.99326597      -1.04600467       1.22479549        1 
H       2.16087319       0.51829412       1.27655528        1 
C       4.21657233       0.96488537      -0.17782466        6 
H       4.70310488       1.24363063      -1.11259606        1 
H       4.94977255       0.47116242       0.47531295        1 
H       3.85124256       1.87235913       0.32251177        1 
