36
Lattice="0.0 0.0 0.0 0.0 0.0 0.0 0.0 0.0 0.0" Properties=species:S:1:pos:R:3:Z:I:1 pbc="F F F"
C      -1.41894671      -0.26988546      -0.83770207        6 
C       0.09462668       0.04226842      -0.83326495        6 
C      -2.22054319       0.42050980       0.26837999        6 
C       0.49853644       1.50459424      -0.77752221        6 
O      -3.48657271      -0.07051941       0.26624674        8 
O      -1.85466151       1.28508345       1.01624564        8 
O       1.84048891       1.62454332      -0.67057803        8 
O      -0.24338842       2.44690393      -0.87394789        8 
C       2.35131865       2.96923245      -0.67612707        6 
C      -4.37571958       0.48356384       1.25197716        6 
C      -1.33406930      -1.76107053      -0.38927096        6 
C      -0.45906154      -2.62460402      -1.32981079        6 
C       0.97895746      -2.28525651      -0.83102702        6 
C       0.67021577      -1.09979904       0.10736595        6 
O      -0.50625953      -1.59840640       0.77858739        8 
H      -1.90363818      -0.11118373      -1.80103473        1 
H       0.45038180      -0.21281670      -1.83938365        1 
H       1.93539758       3.53904053       0.15633276        1 
H      -4.50148139       1.55564804       1.09203984        1 
H      -0.69033898      -3.68271094      -1.20293534        1 
H      -0.61808874      -2.37328147      -2.38114287        1 
H       1.40377349      -3.10711777      -0.25285331        1 
H       1.67873510      -2.02458823      -1.62452287        1 
H       3.42979344       2.86844807      -0.57419570        1 
H       2.10024105       3.47057930      -1.61228919        1 
H      -3.98380195       0.31464763       2.25608017        1 
H      -5.32114639      -0.03764727       1.11631251        1 
H      -2.28872131      -2.19333856      -0.10622899        1 
C       1.72027843      -0.75610441       1.14302718        6 
O       2.99535132      -0.80498915       0.52911704        8 
H       1.65394947      -1.49622404       1.95330063        1 
H       1.52475214       0.23487134       1.56961775        1 
C       4.00374652      -0.18933197       1.30210296        6 
H       4.93728755      -0.28310909       0.74636349        1 
H       4.12073480      -0.67638424       2.28101125        1 
H       3.78480765       0.87530467       1.46283219        1 
