36
Lattice="0.0 0.0 0.0 0.0 0.0 0.0 0.0 0.0 0.0" Properties=species:S:1:pos:R:3:Z:I:1 pbc="F F F"
C      -1.06239289      -1.01730252      -0.27171825        6 
C       0.09171317       0.02843904      -0.51227753        6 
C      -2.47979067      -0.53802313      -0.02814217        6 
C      -0.23077959       1.40117657       0.09483143        6 
O      -2.96245869       0.06728189      -1.12640711        8 
O      -3.15560964      -0.83242374       0.92903209        8 
O       0.73486483       1.90877350       0.87704630        8 
O      -1.24988450       2.00556870      -0.13830573        8 
C       0.46848474       3.20583935       1.44363461        6 
C      -4.28694202       0.61516643      -1.02564551        6 
C      -0.44376725      -1.95457339       0.80098197        6 
C       0.34020870      -3.03235674       0.03914205        6 
C       1.41786680      -2.13438510      -0.63008329        6 
C       1.25482810      -0.78353078       0.14701428        6 
O       0.62371649      -1.18035645       1.37879947        8 
H      -1.16545420      -1.57804241      -1.20566191        1 
H       0.24972209       0.19974441      -1.57748970        1 
H      -0.42454411       3.16932266       2.06837492        1 
H      -4.29764219       1.42222125      -0.29144699        1 
H       0.78788408      -3.73810051       0.74069042        1 
H      -0.27120815      -3.58889505      -0.67415978        1 
H       2.42498743      -2.52773481      -0.49372426        1 
H       1.26233679      -2.00173247      -1.70191753        1 
H       1.34597932       3.44335247       2.04124542        1 
H       0.32685338       3.94436861       0.65362525        1 
H      -5.00345708      -0.15532586      -0.73710993        1 
H      -4.51579940       1.00330300      -2.01569996        1 
H      -1.13175547      -2.27717019       1.57709287        1 
C       2.58859554      -0.11351384       0.42455162        6 
O       3.03624254       0.44800828      -0.79984864        8 
H       3.29563653      -0.87867324       0.77734168        1 
H       2.48951676       0.65142952       1.19477036        1 
C       4.26719715       1.13189955      -0.67433200        6 
H       4.52725722       1.51267233      -1.66237618        1 
H       5.06613025       0.46159974      -0.32713199        1 
H       4.18631310       1.97484443       0.02609133        1 
