36
Lattice="0.0 0.0 0.0 0.0 0.0 0.0 0.0 0.0 0.0" Properties=species:S:1:pos:R:3:Z:I:1 pbc="F F F"
C      -1.13989959      -0.93248455      -0.56509355        6 
C       0.16681325      -0.05883636      -0.69755694        6 
C      -2.46784529      -0.19828921      -0.53518605        6 
C      -0.03869045       1.39918050      -0.27629294        6 
O      -2.90005795       0.02629962       0.72085533        8 
O      -3.06868501       0.13484547      -1.52538150        8 
O       1.04875957       1.96218514       0.27693861        8 
O      -1.04124396       2.02914142      -0.50804726        8 
C       0.93844724       3.36164551       0.59939216        6 
C      -4.08938060       0.82911783       0.83490999        6 
C      -0.78425459      -1.86361924       0.63521312        6 
C      -0.02864098      -3.06816375       0.05851722        6 
C       1.23852083      -2.34638184      -0.47272862        6 
C       1.11558418      -0.93263162       0.18857655        6 
O       0.26618936      -1.16529269       1.32618645        8 
H      -1.21307704      -1.53419917      -1.47249223        1 
H       0.50380676      -0.01753484      -1.73507721        1 
H       0.12177679       3.52707316       1.30290721        1 
H      -4.92987625       0.34261857       0.33740088        1 
H       0.21601575      -3.77165525       0.85645602        1 
H      -0.58692961      -3.60059032      -0.71419422        1 
H       2.15748046      -2.83416166      -0.14826684        1 
H       1.26961239      -2.28146267      -1.56125079        1 
H       1.89293532       3.62798303       1.04845141        1 
H       0.76086209       3.94702239      -0.30376441        1 
H      -3.91773034       1.80740451       0.38411043        1 
H      -4.27589079       0.92150872       1.90278725        1 
H      -1.60050917      -2.06574666       1.32216295        1 
C       2.45888446      -0.39811079       0.64718031        6 
O       3.20722360      -0.08449309      -0.51527927        8 
H       2.96075735      -1.18831700       1.22519651        1 
H       2.33840357       0.47610800       1.28861800        1 
C       4.46088903       0.49792276      -0.22233347        6 
H       4.96043805       0.68445063      -1.17335432        1 
H       5.08486710      -0.17348140       0.38473058        1 
H       4.34243213       1.44961641       0.31402836        1 
