36
Lattice="0.0 0.0 0.0 0.0 0.0 0.0 0.0 0.0 0.0" Properties=species:S:1:pos:R:3:Z:I:1 pbc="F F F"
C      -1.15876238      -0.92160752      -0.25203528        6 
C       0.08208080      -0.00355427      -0.53333259        6 
C      -2.51155258      -0.28396955      -0.00517444        6 
C      -0.06886109       1.37654054       0.12204247        6 
O      -2.93536657       0.34895265      -1.11632435        8 
O      -3.20266099      -0.47428433       0.96568838        8 
O       1.09536168       1.91975731       0.51516674        8 
O      -1.11036134       1.98403782       0.18583142        8 
C       1.01512126       3.24388739       1.07720081        6 
C      -4.17979364       1.05788330      -1.00279125        6 
C      -0.62510986      -1.88383336       0.84350250        6 
C       0.01560967      -3.06691055       0.10729794        6 
C       1.16137756      -2.31373463      -0.62779945        6 
C       1.17454168      -0.93008690       0.10820272        6 
O       0.53852235      -1.21415546       1.36806685        8 
H      -1.33283773      -1.49552098      -1.16730020        1 
H       0.23904599       0.16593532      -1.59944834        1 
H       0.36900936       3.24371885       1.95563154        1 
H      -4.08349128       1.85468531      -0.26346050        1 
H       0.40796641      -3.79095024       0.82337803        1 
H      -0.67326030      -3.57989122      -0.56696189        1 
H       2.12294756      -2.81486098      -0.51582373        1 
H       0.97918706      -2.19729286      -1.69749780        1 
H       2.03618645       3.50162239       1.35042278        1 
H       0.62371795       3.94648745       0.34051140        1 
H      -4.98551036       0.38196007      -0.71236910        1 
H      -4.36692720       1.47648046      -1.98941984        1 
H      -1.32661784      -2.09539571       1.64477373        1 
C       2.58140640      -0.41420430       0.34097647        6 
O       3.09260519       0.00179455      -0.91470218        8 
H       3.18771866      -1.23481931       0.75182040        1 
H       2.58207108       0.40732400       1.05827312        1 
C       4.35024086       0.63889145      -0.81169253        6 
H       4.65609201       0.91621760      -1.82080191        1 
H       5.10723423      -0.03044065      -0.37893944        1 
H       4.28459998       1.54449756      -0.19314459        1 
