36
Lattice="0.0 0.0 0.0 0.0 0.0 0.0 0.0 0.0 0.0" Properties=species:S:1:pos:R:3:Z:I:1 pbc="F F F"
C      -1.17481233      -0.52043850      -0.81063440        6 
C       0.26198833       0.05391169      -0.77351866        6 
C      -2.07471642      -0.04217520       0.33319972        6 
C       0.48404612       1.54723085      -0.60210666        6 
O      -3.20270773      -0.79320985       0.36395994        8 
O      -1.88737544       0.88353232       1.07745118        8 
O      -0.63247501       2.24507880      -0.88187878        8 
O       1.57175114       2.06559424      -0.50941490        8 
C      -0.49628208       3.67500990      -0.91690048        6 
C      -4.16048891      -0.44975420       1.38098162        6 
C      -0.82546894      -1.99827992      -0.45100913        6 
C       0.17084413      -2.63857977      -1.44734921        6 
C       1.53469251      -2.07675720      -0.94208097        6 
C       1.04051892      -1.02516696       0.07222677        6 
O      -0.02084798      -1.76040950       0.72070156        8 
H      -1.68692917      -0.38861893      -1.76383866        1 
H       0.63739586      -0.04358238      -1.79969887        1 
H       0.24197330       3.97363129      -1.66317785        1 
H      -4.49316471       0.58237930       1.25982051        1 
H       0.13127314      -3.72636084      -1.38037196        1 
H      -0.05024054      -2.36150848      -2.48113449        1 
H       2.11385247      -2.84242904      -0.42358427        1 
H       2.15874942      -1.64595197      -1.72401972        1 
H      -1.48312795       4.05200740      -1.17645116        1 
H      -0.19250989       4.04920966       0.06185144        1 
H      -3.72188219      -0.57168727       2.37249159        1 
H      -4.99079227      -1.13894474       1.24209871        1 
H      -1.68470193      -2.60704233      -0.18813225        1 
C       2.04547916      -0.55583791       1.10379769        6 
O       3.27426722      -0.31263387       0.44437957        8 
H       2.15865290      -1.34690970       1.85871263        1 
H       1.68181035       0.34746512       1.60595034        1 
C       4.11073025       0.59781077       1.13404784        6 
H       5.01961384       0.70566296       0.54152215        1 
H       4.37785608       0.22320048       2.13271865        1 
H       3.62391480       1.57553364       1.22768511        1 
