36
Lattice="0.0 0.0 0.0 0.0 0.0 0.0 0.0 0.0 0.0" Properties=species:S:1:pos:R:3:Z:I:1 pbc="F F F"
C      -0.98248804      -1.05276316      -0.70398197        6 
C       0.27136331      -0.10200802      -0.70698699        6 
C      -2.28889683      -0.63795352      -0.05132829        6 
C       0.01674257       1.33781961      -0.28914657        6 
O      -2.19591781       0.43865257       0.73689672        8 
O      -3.30501123      -1.27845941      -0.19279308        8 
O      -0.63100959       1.96781034      -1.29958967        8 
O       0.32390760       1.88629450       0.73681912        8 
C      -1.02692975       3.32457315      -1.04144457        6 
C      -3.38630156       0.82902480       1.44516273        6 
C      -0.41006812      -2.27659720       0.08186745        6 
C       0.59597979      -3.03684239      -0.80170633        6 
C       1.81572290      -2.07420140      -0.75581678        6 
C       1.28092256      -0.93347610       0.15151453        6 
O       0.42104559      -1.64558807       1.06218835        8 
H      -1.25227207      -1.34583441      -1.71847176        1 
H       0.63587471      -0.03050622      -1.73165124        1 
H      -0.15499599       3.94854674      -0.83936631        1 
H      -3.72669843       0.01664158       2.08824079        1 
H       0.83229252      -4.00236463      -0.35197485        1 
H       0.21612502      -3.21719439      -1.80901640        1 
H       2.67786178      -2.54685688      -0.28221841        1 
H       2.12843464      -1.71144980      -1.73480142        1 
H      -1.53428628       3.65701751      -1.94459087        1 
H      -1.70234707       3.36428143      -0.18482562        1 
H      -4.17874002       1.08868928       0.74141453        1 
H      -3.09452244       1.69257463       2.03835571        1 
H      -1.16883296      -2.88436821       0.56876629        1 
C       2.34902503      -0.18721289       0.92226539        6 
O       3.10355942       0.55058049      -0.02850450        8 
H       2.98705816      -0.91464632       1.44457521        1 
H       1.88922234       0.47753052       1.65571314        1 
C       3.96950504       1.49570308       0.57244800        6 
H       4.49305226       2.01028963      -0.23389756        1 
H       4.70778923       1.00558550       1.22270966        1 
H       3.40209321       2.22597978       1.16338712        1 
