36
Lattice="0.0 0.0 0.0 0.0 0.0 0.0 0.0 0.0 0.0" Properties=species:S:1:pos:R:3:Z:I:1 pbc="F F F"
C      -1.07753989      -0.95827470      -0.84960539        6 
C       0.24614001      -0.13824832      -0.85390325        6 
C      -2.31285101      -0.48897441      -0.09434185        6 
C       0.23849533       1.38394037      -0.83302383        6 
O      -2.05457062       0.07858583       1.08955401        8 
O      -3.43103507      -0.76534256      -0.46962050        8 
O      -0.93934040       1.93306351      -0.49063745        8 
O       1.17786272       2.04155412      -1.21554252        8 
C      -1.02621323       3.36606781      -0.59042796        6 
C      -3.19713056       0.43563619       1.88231273        6 
C      -0.56102802      -2.22580396      -0.08892376        6 
C       0.53517396      -2.95003015      -0.90864050        6 
C       1.79059906      -2.08896910      -0.57703218        6 
C       1.13644522      -0.92351286       0.19721845        6 
O       0.16982467      -1.62946195       0.98874973        8 
H      -1.41407748      -1.19206631      -1.85825948        1 
H       0.71129002      -0.31213070      -1.82682639        1 
H      -0.83042825       3.68953852      -1.61381416        1 
H      -3.80582656      -0.44365251       2.09906185        1 
H       0.65049701      -3.97956941      -0.56781446        1 
H       0.30065029      -2.97600703      -1.97492958        1 
H       2.47380132      -2.62273502       0.08537718        1 
H       2.35016553      -1.75878400      -1.45099084        1 
H      -2.04421790       3.61329153      -0.29753357        1 
H      -0.30712447       3.83986146       0.07910213        1 
H      -3.80835847       1.17305575       1.35855220        1 
H      -2.79157691       0.85653396       2.79976872        1 
H      -1.35012874      -2.86183607       0.30674869        1 
C       2.04989642      -0.11227835       1.09133922        6 
O       3.20274399       0.22091799       0.34316368        8 
H       2.31209370      -0.71590622       1.97200661        1 
H       1.53171675       0.78967333       1.44341126        1 
C       3.90694080       1.33847257       0.85026042        6 
H       4.77007845       1.49079143       0.20228180        1 
H       4.25576197       1.16429323       1.87812576        1 
H       3.28092716       2.23944201       0.82655361        1 
