36
Lattice="0.0 0.0 0.0 0.0 0.0 0.0 0.0 0.0 0.0" Properties=species:S:1:pos:R:3:Z:I:1 pbc="F F F"
C      -1.12543352      -0.72537776      -0.40071945        6 
C       0.23757269      -0.00451646      -0.69529535        6 
C      -2.41026878       0.03813917      -0.12474627        6 
C       0.45964332       1.46659884      -0.37978949        6 
O      -3.40203691      -0.51598297      -0.87885330        8 
O      -2.61466371       0.93967266       0.64327304        8 
O      -0.08713974       1.86126181       0.76982221        8 
O       1.19070551       2.16438437      -1.04881223        8 
C       0.13282897       3.22696295       1.15442018        6 
C      -4.71804252       0.03136894      -0.68632029        6 
C      -0.73510505      -1.67349155       0.79302224        6 
C      -0.09004187      -2.93369150       0.19325238        6 
C       1.23725036      -2.32746823      -0.34873255        6 
C       1.18184253      -0.87965163       0.21851528        6 
O       0.38286347      -1.02132125       1.39912550        8 
H      -1.35664839      -1.34059227      -1.26894327        1 
H       0.51115687      -0.11714673      -1.74192037        1 
H      -0.25559965       3.90382718       0.39190383        1 
H      -4.73724329       1.08651063      -0.96428111        1 
H       0.09979990      -3.66451452       0.98131302        1 
H      -0.70429843      -3.40644484      -0.57480295        1 
H       2.11203090      -2.84728507       0.04351837        1 
H       1.31011577      -2.33842085      -1.43634002        1 
H      -0.41080248       3.35077865       2.08787947        1 
H       1.19799506       3.41939576       1.29570012        1 
H      -5.02671164      -0.06891181       0.35553100        1 
H      -5.37065658      -0.54699894      -1.33697139        1 
H      -1.51540530      -1.82712570       1.53488855        1 
C       2.53359312      -0.29318632       0.56699600        6 
O       3.30584856      -0.28397778      -0.61807714        8 
H       3.00446426      -0.91613391       1.34129966        1 
H       2.42365556       0.71862829       0.97595410        1 
C       4.43080058       0.57363154      -0.54868804        6 
H       4.95026766       0.49476650      -1.50361379        1 
H       5.11520338       0.27451880       0.25777993        1 
H       4.12001759       1.61433323      -0.39376005        1 
