36
Lattice="0.0 0.0 0.0 0.0 0.0 0.0 0.0 0.0 0.0" Properties=species:S:1:pos:R:3:Z:I:1 pbc="F F F"
C      -1.32494757      -0.66420990      -0.62938062        6 
C       0.11318788      -0.07893556      -0.74766467        6 
C      -2.26644728       0.11361895       0.27584740        6 
C       0.17144180       1.43457874      -0.60943122        6 
O      -3.52029681       0.08495442      -0.23349944        8 
O      -1.98633226       0.62098126       1.33029284        8 
O       1.42091470       1.88905296      -0.40954273        8 
O      -0.78290892       2.16190141      -0.73849429        8 
C       1.56425648       3.32045336      -0.33802302        6 
C      -4.52703664       0.75573641       0.54576409        6 
C      -1.00370349      -2.01088503       0.08512630        6 
C      -0.20237319      -2.94069072      -0.85476278        6 
C       1.22357834      -2.32371050      -0.74571706        6 
C       0.94769235      -1.08353345       0.14249978        6 
O      -0.03418176      -1.60242290       1.05356211        8 
H      -1.80201575      -0.80809672      -1.59675535        1 
H       0.44805728      -0.21971527      -1.78095597        1 
H       0.96674729       3.72078377       0.48202505        1 
H      -4.28249336       1.81430043       0.64509894        1 
H      -0.22490260      -3.96744051      -0.48675544        1 
H      -0.59949766      -2.94007345      -1.87221171        1 
H       1.90730481      -2.99431918      -0.22302174        1 
H       1.67247246      -2.06756460      -1.70462730        1 
H       2.62394617       3.49510619      -0.16492835        1 
H       1.24716375       3.78272674      -1.27386241        1 
H      -4.60508405       0.30960093       1.53864759        1 
H      -5.45544996       0.62681544      -0.00674911        1 
H      -1.85432369      -2.46743752       0.58769717        1 
C       2.13883205      -0.58623799       0.93197879        6 
O       3.21804170      -0.40057897       0.03304898        8 
H       2.38996549      -1.34785243       1.68437709        1 
H       1.89593226       0.34520184       1.45366233        1 
C       4.30013704       0.29797123       0.61157265        6 
H       5.07115926       0.39015899      -0.15400573        1 
H       4.71649520      -0.24176852       1.47447462        1 
H       3.99431105       1.30110767       0.93902068        1 
