36
Lattice="0.0 0.0 0.0 0.0 0.0 0.0 0.0 0.0 0.0" Properties=species:S:1:pos:R:3:Z:I:1 pbc="F F F"
C      -0.90661138       1.08383536       0.74366443        6 
C       0.30133543       0.07854709       0.72606537        6 
C      -2.21992770       0.63577252       0.13717275        6 
C      -0.06980557      -1.34052901       0.32746588        6 
O      -2.05196075      -0.09629973      -0.97839575        8 
O      -3.30071692       0.96086976       0.56818811        8 
O      -1.03055505      -1.78639248       1.17400404        8 
O       0.41623245      -2.02939723      -0.53106120        8 
C      -1.52330717      -3.11468269       0.92930768        6 
C      -3.24787944      -0.54382969      -1.63982548        6 
C      -0.30565329       2.25855450      -0.09575747        6 
C       0.73069419       3.00941332       0.76108523        6 
C       1.90963104       1.99493785       0.74723847        6 
C       1.33772666       0.85575211      -0.14250672        6 
O       0.50103632       1.58004134      -1.06312562        8 
H      -1.14643924       1.40753756       1.75451414        1 
H       0.67966168      -0.02490021       1.74498641        1 
H      -0.71845917      -3.84576063       1.01966420        1 
H      -3.84079577       0.30879281      -1.97371170        1 
H       1.00608388       3.94787849       0.27759476        1 
H       0.36095300       3.23971831       1.76200122        1 
H       2.79553254       2.42023252       0.27325541        1 
H       2.19778371       1.64159545       1.73718216        1 
H      -2.28451651      -3.28604149       1.68719468        1 
H      -1.95598334      -3.17984990      -0.07069909        1 
H      -3.84880388      -1.15471372      -0.96368000        1 
H      -2.90439903      -1.13012548      -2.48891906        1 
H      -1.04466700       2.87865168      -0.59932085        1 
C       2.38374170       0.06576542      -0.90074718        6 
O       3.14206007      -0.64628455       0.06489097        8 
H       3.02320701       0.76531274      -1.45882382        1 
H       1.90492867      -0.61842234      -1.60363224        1 
C       3.94579978      -1.66337640      -0.50453649        6 
H       4.46903102      -2.15547099       0.31600670        1 
H       4.68740776      -1.24694737      -1.20111620        1 
H       3.32763957      -2.39831978      -1.03502940        1 
