36
Lattice="0.0 0.0 0.0 0.0 0.0 0.0 0.0 0.0 0.0" Properties=species:S:1:pos:R:3:Z:I:1 pbc="F F F"
C      -1.03637142      -1.01014276      -0.42726993        6 
C       0.22837162      -0.11050503      -0.72269291        6 
C      -2.29609215      -0.31287971       0.04967025        6 
C       0.09883732       1.38148673      -0.45837608        6 
O      -3.23936986      -0.35352279      -0.92511261        8 
O      -2.47597936       0.21427231       1.11673734        8 
O      -0.08781162       1.67304281       0.83505376        8 
O       0.20949445       2.21856976      -1.32466550        8 
C      -0.27434095       3.05939581       1.16218842        6 
C      -4.48945221       0.29217394      -0.62043731        6 
C      -0.46423862      -1.99063462       0.64379329        6 
C       0.37784421      -3.05825618      -0.07916424        6 
C       1.61300730      -2.20893582      -0.49898637        6 
C       1.29363946      -0.84127698       0.16932861        6 
O       0.52897467      -1.21700843       1.32037512        8 
H      -1.30206528      -1.54712783      -1.33633558        1 
H       0.49272014      -0.17905947      -1.77512009        1 
H      -1.13678203       3.46116128       0.62832181        1 
H      -4.33217421       1.35484454      -0.42900780        1 
H       0.65831944      -3.84933879       0.61818065        1 
H      -0.14510691      -3.51435463      -0.92201441        1 
H       2.53914146      -2.61553994      -0.08966045        1 
H       1.73855408      -2.11930300      -1.57794386        1 
H      -0.44824719       3.07870773       2.23530805        1 
H       0.61206232       3.63998038       0.89985320        1 
H      -4.95244409      -0.16482716       0.25560439        1 
H      -5.11113788       0.15058257      -1.50169601        1 
H      -1.19396407      -2.35443933       1.36349226        1 
C       2.50630545      -0.03695466       0.58826926        6 
O       3.18665709       0.34388718      -0.59443551        8 
H       3.14759464      -0.65938444       1.22928683        1 
H       2.19694028       0.84129161       1.16559134        1 
C       4.25300744       1.24315740      -0.35756103        6 
H       4.68666945       1.48911493      -1.32668530        1 
H       5.02618745       0.79112829       0.27957039        1 
H       3.89554937       2.16549395       0.12045486        1 
