36
Lattice="0.0 0.0 0.0 0.0 0.0 0.0 0.0 0.0 0.0" Properties=species:S:1:pos:R:3:Z:I:1 pbc="F F F"
C      -1.15178796      -0.50692479      -0.83677016        6 
C       0.30766638       0.03747823      -0.76278137        6 
C      -2.07298643       0.09408582       0.23143816        6 
C       0.46059949       1.51557479      -0.44251608        6 
O      -3.09748475      -0.74123667       0.50413885        8 
O      -1.98383008       1.19332909       0.71812300        8 
O      -0.35394203       2.21981628      -1.26063348        8 
O       1.30249965       2.02850628       0.25034993        8 
C      -0.36203474       3.64319673      -1.07006462        6 
C      -4.06081526      -0.26955778       1.46463638        6 
C      -0.87692237      -1.98352864      -0.44939263        6 
C       0.07588126      -2.67473319      -1.45072341        6 
C       1.46366087      -2.15095823      -0.98009234        6 
C       1.03412653      -1.08821881       0.05450145        6 
O      -0.05272311      -1.77341495       0.71565132        8 
H      -1.61631512      -0.36750023      -1.81405839        1 
H       0.70492079       0.00801632      -1.78283791        1 
H       0.63631528       4.05910557      -1.21348000        1 
H      -4.52364372       0.65548705       1.11797674        1 
H       0.00183979      -3.75935754      -1.36308689        1 
H      -0.15589423      -2.40829330      -2.48487961        1 
H       2.03511433      -2.93401645      -0.47867128        1 
H       2.07980147      -1.73861486      -1.77833149        1 
H      -1.05053721       4.03210804      -1.81754247        1 
H      -0.71788272       3.87911967      -0.06588064        1 
H      -3.57931742      -0.09378390       2.42743404        1 
H      -4.80015880      -1.06338206       1.54511496        1 
H      -1.76086216      -2.54771357      -0.17295911        1 
C       2.08897009      -0.69789192       1.06568999        6 
O       3.23713876      -0.28901963       0.34260732        8 
H       2.31423782      -1.57475192       1.69054451        1 
H       1.72352188       0.10745185       1.70885142        1 
C       4.14064119       0.47262595       1.12324718        6 
H       4.98176354       0.72875263       0.47814453        1 
H       4.51256500      -0.10455282       1.98192765        1 
H       3.66495491       1.39294377       1.48157883        1 
