36
Lattice="0.0 0.0 0.0 0.0 0.0 0.0 0.0 0.0 0.0" Properties=species:S:1:pos:R:3:Z:I:1 pbc="F F F"
C      -1.45505860      -0.69088997      -0.83255514        6 
C       0.00200766      -0.16201277      -0.86995597        6 
C      -2.48053653       0.05455921       0.01093834        6 
C       0.14300492       1.34962949      -0.89355692        6 
O      -1.94453409       0.79809121       0.98778811        8 
O      -3.66922397      -0.13091752      -0.11411578        8 
O       1.42371809       1.73163174      -0.72568258        8 
O      -0.75535702       2.12485313      -1.10985849        8 
C       1.68045885       3.14420857      -0.82359927        6 
C      -2.87481838       1.45820068       1.86204532        6 
C      -1.20181477      -2.04523247      -0.10479477        6 
C      -0.27937606      -2.96471164      -0.94239837        6 
C       1.12718664      -2.37636259      -0.61869817        6 
C       0.73113651      -1.10791996       0.17041656        6 
O      -0.35316033      -1.61798829       0.97027957        8 
H      -1.89074063      -0.82078787      -1.82206149        1 
H       0.40842475      -0.42725219      -1.85253499        1 
H       1.12065173       3.68822158      -0.06113442        1 
H      -3.49341897       0.72619231       2.38355404        1 
H      -0.36866754      -4.00019705      -0.61209277        1 
H      -0.52477492      -2.93038774      -2.00626376        1 
H       1.69678791      -3.04285155       0.03095583        1 
H       1.73338681      -2.15745401      -1.49719642        1 
H       2.75139025       3.25323300      -0.66633995        1 
H       1.39763375       3.51693377      -1.80926293        1 
H      -3.51515817       2.13354361       1.29265275        1 
H      -2.26279767       2.01543534       2.56780501        1 
H      -2.10000014      -2.51166719       0.29299970        1 
C       1.79358993      -0.54716912       1.09178047        6 
O       3.01799237      -0.48604103       0.38397533        8 
H       1.88002202      -1.22123573       1.95618097        1 
H       1.50383575       0.44420248       1.45941036        1 
C       4.01780702       0.22870236       1.07886889        6 
H       4.91097681       0.22383082       0.45359094        1 
H       4.25369259      -0.24130869       2.04450185        1 
H       3.70995928       1.26807055       1.25974266        1 
