36
Lattice="0.0 0.0 0.0 0.0 0.0 0.0 0.0 0.0 0.0" Properties=species:S:1:pos:R:3:Z:I:1 pbc="F F F"
C      -1.04730429      -0.83708997      -0.64087599        6 
C       0.28298582      -0.03571343      -0.73353350        6 
C      -2.12052084      -0.31052954       0.29704408        6 
C       0.28309056       1.47803892      -0.57996979        6 
O      -3.34478525      -0.53644118      -0.24592720        8 
O      -1.96187129       0.16461907       1.38998274        8 
O      -0.94633032       1.99720329      -0.42322189        8 
O       1.26314779       2.16126918      -0.76167816        8 
C      -1.03617993       3.43227527      -0.39023433        6 
C      -4.46776018      -0.17352939       0.57663058        6 
C      -0.50237350      -2.14634349       0.01863074        6 
C       0.46052872      -2.88144853      -0.94247337        6 
C       1.76788160      -2.05567863      -0.75902830        6 
C       1.26293037      -0.90760115       0.14647356        6 
O       0.36922403      -1.61581327       1.02156352        8 
H      -1.49157359      -1.01575146      -1.61819973        1 
H       0.63298750      -0.12509935      -1.76622461        1 
H      -0.67804327       3.85857669      -1.32864564        1 
H      -4.45134039       0.89594886       0.79282983        1 
H       0.59245678      -3.91838448      -0.63086924        1 
H       0.09164637      -2.88565281      -1.97073628        1 
H       2.52788510      -2.62835638      -0.22536945        1 
H       2.20486075      -1.69713664      -1.69005875        1 
H      -2.09156324       3.65110644      -0.24424758        1 
H      -0.44574697       3.82945413       0.43607142        1 
H      -4.44899886      -0.72702235       1.51688124        1 
H      -5.35039756      -0.43351606      -0.00397601        1 
H      -1.26613489      -2.76592578       0.48459691        1 
C       2.32679304      -0.19658199       0.95617608        6 
O       3.39907431       0.11384149       0.08553829        8 
H       2.65840002      -0.86899022       1.76019947        1 
H       1.91779719       0.70845389       1.42025914        1 
C       4.21568677       1.17151271       0.55269177        6 
H       5.00925817       1.30827096      -0.18231583        1 
H       4.66721217       0.93205827       1.52600726        1 
H       3.63921312       2.10046268       0.63553778        1 
