36
Lattice="0.0 0.0 0.0 0.0 0.0 0.0 0.0 0.0 0.0" Properties=species:S:1:pos:R:3:Z:I:1 pbc="F F F"
C      -1.48140684      -0.51861754      -0.89996334        6 
C       0.01424139      -0.10517285      -0.86105323        6 
C      -2.53057636       0.22489344      -0.08197994        6 
C       0.36991090       1.36757995      -0.75096394        6 
O      -2.06146721       0.78519860       1.03340382        8 
O      -3.70840950       0.16055175      -0.35895824        8 
O       1.66148120       1.53197453      -1.12334021        8 
O      -0.33152635       2.28647680      -0.41343016        8 
C       2.17571040       2.87159262      -1.04991986        6 
C      -3.02714852       1.43589977       1.87467523        6 
C      -1.34492779      -1.92516118      -0.23109298        6 
C      -0.44060415      -2.86363128      -1.07109682        6 
C       0.98426266      -2.39772981      -0.64135170        6 
C       0.62564164      -1.13982338       0.17748476        6 
O      -0.52465649      -1.60638101       0.90009466        8 
H      -1.86775526      -0.58168244      -1.91647939        1 
H       0.43433904      -0.37441371      -1.83249843        1 
H       2.10185996       3.25484860      -0.03050358        1 
H      -3.76813841       0.71934398       2.23354084        1 
H      -0.62062059      -3.90599015      -0.80635758        1 
H      -0.62196991      -2.75547450      -2.14283300        1 
H       1.46376637      -3.13071008       0.00936098        1 
H       1.65502125      -2.18406006      -1.47272967        1 
H       3.21675695       2.79848881      -1.35705143        1 
H       1.62307247       3.53291285      -1.71947434        1 
H      -3.53118190       2.23315819       1.32632972        1 
H      -2.45538966       1.84620602       2.70378495        1 
H      -2.28807966      -2.35270594       0.10111299        1 
C       1.66173960      -0.64622878       1.16652869        6 
O       2.92934488      -0.64857428       0.53752164        8 
H       1.65659632      -1.31998639       2.03501070        1 
H       1.39901004       0.36000457       1.52197499        1 
C       3.90945420       0.06041857       1.26671216        6 
H       4.84330301      -0.01710778       0.70950237        1 
H       4.05466178      -0.36375581       2.27040178        1 
H       3.63859939       1.12088860       1.36868724        1 
