36
Lattice="0.0 0.0 0.0 0.0 0.0 0.0 0.0 0.0 0.0" Properties=species:S:1:pos:R:3:Z:I:1 pbc="F F F"
C      -1.19044229      -0.72625008      -0.58231114        6 
C       0.17355802       0.02042046      -0.66531327        6 
C      -2.42395138       0.15639499      -0.58405558        6 
C       0.15381266       1.37209280       0.03804442        6 
O      -3.31075080      -0.19392880       0.36506706        8 
O      -2.61329479       1.02863214      -1.39562722        8 
O       1.31263474       2.03485056      -0.16733168        8 
O      -0.77546649       1.84788679       0.63954086        8 
C       1.38935179       3.35541786       0.40011730        6 
C      -4.50650855       0.60647823       0.43066719        6 
C      -0.94825257      -1.75770647       0.55703396        6 
C      -0.30950849      -2.99490090      -0.09331717        6 
C       1.04314469      -2.38132597      -0.55844321        6 
C       1.03899747      -1.00079354       0.16730410        6 
O       0.16676979      -1.21583754       1.28900917        8 
H      -1.30273664      -1.27848023      -1.52210136        1 
H       0.54810623       0.15120139      -1.67844498        1 
H       1.29335364       3.31224678       1.48646244        1 
H      -5.06007049       0.54501411      -0.50760191        1 
H      -0.15511665      -3.77482164       0.65400397        1 
H      -0.90664436      -3.40737665      -0.90895865        1 
H       1.89583546      -2.97653039      -0.23109411        1 
H       1.11939571      -2.26709289      -1.64039849        1 
H       2.36858035       3.73472751       0.11595325        1 
H       0.59868971       3.98867013      -0.00449257        1 
H      -4.24728117       1.64659270       0.63146895        1 
H      -5.08907512       0.18918373       1.24908620        1 
H      -1.78619910      -1.91821640       1.22711785        1 
C       2.40409129      -0.56671546       0.65787403        6 
O       3.23922727      -0.41746620      -0.47464520        8 
H       2.79374277      -1.34467984       1.33130660        1 
H       2.34045479       0.36837145       1.22459182        1 
C       4.49033768       0.16261327      -0.16479662        6 
H       5.05155728       0.23497767      -1.09654178        1 
H       5.05575517      -0.45493565       0.54768245        1 
H       4.36517055       1.16803457       0.25941764        1 
