36
Lattice="0.0 0.0 0.0 0.0 0.0 0.0 0.0 0.0 0.0" Properties=species:S:1:pos:R:3:Z:I:1 pbc="F F F"
C      -1.11748064      -1.01650050      -0.45581847        6 
C       0.11362494      -0.06574984      -0.56008271        6 
C      -2.50830548      -0.49152775      -0.16108703        6 
C       0.00111779       1.24681321       0.19557908        6 
O      -2.62253510       0.83735728      -0.31101211        8 
O      -3.45357384      -1.22511954       0.01147332        8 
O       0.42281149       2.26991786      -0.58236023        8 
O      -0.37255922       1.39007094       1.33189828        8 
C       0.38712831       3.57147579       0.02575985        6 
C      -3.94468591       1.38575977      -0.15380213        6 
C      -0.60197654      -2.15222109       0.47900787        6 
C       0.20801220      -3.13739037      -0.38085431        6 
C       1.42507538      -2.23857802      -0.75453491        6 
C       1.18272902      -0.98743257       0.13970562        6 
O       0.43065295      -1.51396610       1.24053454        8 
H      -1.26911225      -1.44853701      -1.45151485        1 
H       0.38339236       0.14953477      -1.59052599        1 
H       1.02946285       3.60188119       0.90763575        1 
H      -4.32289129       1.17519639       0.84694797        1 
H       0.51801193      -3.99095254       0.22391029        1 
H      -0.34513243      -3.50913730      -1.24512177        1 
H       2.37381382      -2.70799185      -0.49170233        1 
H       1.46675950      -1.98162847      -1.81343798        1 
H       0.75009833       4.25849820      -0.73573267        1 
H      -0.63243527       3.82620759       0.32014616        1 
H      -4.62358826       0.96057138      -0.89459045        1 
H      -3.83148707       2.45702669      -0.30317552        1 
H      -1.35405596      -2.57666801       1.13811299        1 
C       2.43544094      -0.31103165       0.65383488        6 
O       3.13728134       0.19874693      -0.46617726        8 
H       3.04308049      -1.04852930       1.19808890        1 
H       2.17733656       0.49146838       1.35694420        1 
C       4.26775613       0.96782134      -0.10337119        6 
H       4.72752906       1.32029537      -1.02669911        1 
H       4.99895635       0.36854421       0.45708121        1 
H       3.97856366       1.83300033       0.50920642        1 
