36
Lattice="0.0 0.0 0.0 0.0 0.0 0.0 0.0 0.0 0.0" Properties=species:S:1:pos:R:3:Z:I:1 pbc="F F F"
C      -1.03804365      -1.17881985      -0.60639888        6 
C       0.17485784      -0.17656409      -0.70729461        6 
C      -2.19755389      -0.67832099       0.24035236        6 
C      -0.09780421       1.20627123      -0.15573702        6 
O      -2.87866515       0.27567409      -0.43614809        8 
O      -2.48103032      -1.04325419       1.34981384        8 
O      -0.00479282       2.13642804      -1.12677076        8 
O      -0.37848946       1.46661956       0.98992931        8 
C      -0.23379540       3.49433068      -0.71523264        6 
C      -3.92408014       0.93824508       0.29968125        6 
C      -0.35104811      -2.39962130       0.04114117        6 
C       0.62831773      -3.04694604      -0.96432126        6 
C       1.82608370      -2.05065260      -0.90649424        6 
C       1.27762089      -0.98474926       0.07422061        6 
O       0.52429076      -1.78018138       0.99297735        8 
H      -1.42612614      -1.39006020      -1.60455666        1 
H       0.46879547      -0.05378100      -1.74647995        1 
H       0.49299458       3.78898501       0.04367895        1 
H      -3.50411946       1.43306945       1.17677808        1 
H       0.92038304      -4.04164838      -0.62553491        1 
H       0.19665634      -3.14338669      -1.96299506        1 
H       2.71135539      -2.52156996      -0.47479110        1 
H       2.10181102      -1.63497875      -1.87573727        1 
H      -0.11367327       4.09455332      -1.61440914        1 
H      -1.24074009       3.60651470      -0.30967953        1 
H      -4.68359932       0.22186288       0.61632443        1 
H      -4.34800479       1.66544862      -0.38959353        1 
H      -1.02931877      -3.07283878       0.55800345        1 
C       2.29465280      -0.16940714       0.84233244        6 
O       2.87706724       0.75468980      -0.06349706        8 
H       3.05749449      -0.83771655       1.26583752        1 
H       1.79143225       0.35185126       1.66465514        1 
C       3.76702852       1.65741463       0.56577167        6 
H       4.13540153       2.33519960      -0.20465498        1 
H       4.61892261       1.13119533       1.01828414        1 
H       3.25656450       2.23794360       1.34622830        1 
