36
Lattice="0.0 0.0 0.0 0.0 0.0 0.0 0.0 0.0 0.0" Properties=species:S:1:pos:R:3:Z:I:1 pbc="F F F"
C      -0.85291036       1.04890902       0.45462257        6 
C       0.33296686       0.01357564       0.58879166        6 
C      -2.11013494       0.50294326      -0.18621679        6 
C       0.01303576      -1.35353661       0.00013941        6 
O      -3.12171734       0.44953872       0.70758019        8 
O      -2.23238386       0.19998819      -1.34756363        8 
O      -1.05719309      -1.87210265       0.64979252        8 
O       0.59828690      -1.94617749      -0.86748901        8 
C      -1.54260085      -3.13395800       0.15676616        6 
C      -4.36489445      -0.08093752       0.21525895        6 
C      -0.17680250       2.15778203      -0.40938638        6 
C       0.69968282       3.01722109       0.51808625        6 
C       1.84126639       2.00936004       0.83627481        6 
C       1.48287009       0.81193206      -0.09297942        6 
O       0.79410731       1.44592225      -1.18248063        8 
H      -1.12600788       1.42811831       1.43788915        1 
H       0.54788789      -0.16382365       1.64332855        1 
H      -0.76599817      -3.89693495       0.22397985        1 
H      -4.23311028      -1.11524087      -0.10766755        1 
H       1.07597473       3.88483417      -0.02616879        1 
H       0.16747539       3.37163259       1.40281422        1 
H       2.81928331       2.40906446       0.56554409        1 
H       1.88219948       1.71648098       1.88599133        1 
H      -2.38561671      -3.38900002       0.79562088        1 
H      -1.86096312      -3.03097119      -0.88188161        1 
H      -4.73077488       0.51163318      -0.62440810        1 
H      -5.05609859      -0.02845606       1.05357081        1 
H      -0.85284028       2.68926218      -1.07492927        1 
C       2.67488148       0.03424919      -0.61218429        6 
O       3.19873886      -0.70919242       0.47918449        8 
H       3.42679717       0.73890883      -0.99619964        1 
H       2.36252076      -0.62848193      -1.42093271        1 
C       4.13868376      -1.68704549       0.07375792        6 
H       4.47582452      -2.20184718       0.97406384        1 
H       5.00713450      -1.22952658      -0.42115334        1 
H       3.67946890      -2.41278244      -0.60963643        1 
