36
Lattice="0.0 0.0 0.0 0.0 0.0 0.0 0.0 0.0 0.0" Properties=species:S:1:pos:R:3:Z:I:1 pbc="F F F"
C      -1.28601971      -0.78978171      -0.77701259        6 
C       0.12096140      -0.08889629      -0.78156790        6 
C      -2.49890237       0.06784868      -0.44130979        6 
C       0.12051738       1.37852785      -0.37497553        6 
O      -2.71101130       0.16807299       0.88106764        8 
O      -3.24207412       0.51684969      -1.28075998        8 
O       1.36443907       1.89625086      -0.44873520        8 
O      -0.84552909       2.04880676      -0.10800063        8 
C       1.47871363       3.30149784      -0.15826354        6 
C      -3.78072864       1.04207462       1.27716959        6 
C      -1.04180321      -1.95577612       0.22154877        6 
C      -0.24753549      -3.06471761      -0.49131767        6 
C       1.15133774      -2.39570712      -0.59803351        6 
C       0.92282375      -1.06255438       0.16804242        6 
O      -0.07432270      -1.41445077       1.13396521        8 
H      -1.49520037      -1.17085636      -1.77638772        1 
H       0.56274254      -0.11031569      -1.77893191        1 
H       1.17396292       3.50475353       0.86961529        1 
H      -4.72975264       0.70726488       0.85540561        1 
H      -0.21379776      -3.96203073       0.12864255        1 
H      -0.67629902      -3.33449432      -1.45819094        1 
H       1.92042003      -2.98127305      -0.09248822        1 
H       1.48438834      -2.23090889      -1.62259780        1 
H       2.53025390       3.54062409      -0.30154311        1 
H       0.85569516       3.88357289      -0.83856758        1 
H      -3.56869391       2.05726339       0.93844315        1 
H      -3.80478715       0.99666793       2.36389069        1 
H      -1.92256826      -2.27262487       0.77253937        1 
C       2.15459959      -0.55278035       0.88623664        6 
O       3.19320349      -0.41879761      -0.06557448        8 
H       2.42702003      -1.28818120       1.65736490        1 
H       1.95244414       0.40104899       1.38555390        1 
C       4.32018151       0.26591803       0.44035985        6 
H       5.05933495       0.30583134      -0.36017071        1 
H       4.75672408      -0.25548136       1.30435049        1 
H       4.05981681       1.29007545       0.74126095        1 
