36
Lattice="0.0 0.0 0.0 0.0 0.0 0.0 0.0 0.0 0.0" Properties=species:S:1:pos:R:3:Z:I:1 pbc="F F F"
C      -1.33152829      -0.64902429      -0.62150768        6 
C       0.09989260      -0.02412000      -0.71408305        6 
C      -2.35829655      -0.00569966       0.30117603        6 
C       0.28543181       1.42722467      -0.31073035        6 
O      -3.48868434       0.26344111      -0.40861957        8 
O      -2.24751975       0.22390037       1.47295354        8 
O       1.18919515       2.00401281      -1.13952134        8 
O      -0.25675165       2.02608193       0.58179871        8 
C       1.52687260       3.36933400      -0.84530207        6 
C      -4.56381007       0.85936941       0.34029653        6 
C      -0.96373865      -2.04248449      -0.02480566        6 
C      -0.13464578      -2.86495906      -1.04154483        6 
C       1.27889408      -2.23089629      -0.86932965        6 
C       0.95800785      -1.07741258       0.10687506        6 
O      -0.00516597      -1.68742583       0.97252170        8 
H      -1.77696931      -0.73450549      -1.61125922        1 
H       0.42233820      -0.06743115      -1.75283912        1 
H       1.92034345       3.45730678       0.16881776        1 
H      -4.23729894       1.79679787       0.79284744        1 
H      -0.13687937      -3.92143242      -0.77021250        1 
H      -0.52380944      -2.77882291      -2.05830964        1 
H       1.97136797      -2.92700403      -0.39276255        1 
H       1.72847497      -1.88542909      -1.79936725        1 
H       2.28500457       3.64431128      -1.57537325        1 
H       0.64916097       4.01089046      -0.94179485        1 
H      -4.90360157       0.18293097       1.12671341        1 
H      -5.35847564       1.03514992      -0.38178000        1 
H      -1.79569453      -2.56848791       0.43898646        1 
C       2.10476489      -0.55737345       0.94598150        6 
O       3.14119712      -0.14320051       0.07572827        8 
H       2.44729841      -1.36626117       1.60750689        1 
H       1.76071922       0.27201578       1.57894927        1 
C       4.22904708       0.44941052       0.75708276        6 
H       4.97062259       0.71961281       0.00513385        1 
H       4.68185019      -0.24916000       1.47468286        1 
H       3.91772393       1.35415355       1.29781722        1 
