36
Lattice="0.0 0.0 0.0 0.0 0.0 0.0 0.0 0.0 0.0" Properties=species:S:1:pos:R:3:Z:I:1 pbc="F F F"
C      -1.17364062      -0.89653568      -0.30268617        6 
C       0.05571270       0.02668962      -0.51429600        6 
C      -2.56017688      -0.31282337      -0.14038093        6 
C      -0.03440395       1.31198926       0.30750387        6 
O      -2.74232811       0.75317227      -0.94312155        8 
O      -3.46019648      -0.87163720       0.43959074        8 
O       1.07394316       2.06842708       0.14923916        8 
O      -0.98928223       1.68535024       0.94055202        8 
C       1.07415073       3.33344640       0.83628713        6 
C      -4.05922726       1.33057534      -0.93306804        6 
C      -0.68004689      -1.90908706       0.76832875        6 
C      -0.01726926      -3.06365620       0.00466093        6 
C       1.16037932      -2.28951660      -0.65787246        6 
C       1.13961412      -0.93384089       0.11917946        6 
O       0.47052372      -1.26468034       1.34940983        8 
H      -1.30446299      -1.44806119      -1.24261814        1 
H       0.26176522       0.27567259      -1.55374588        1 
H       0.97945319       3.18347083       1.91297151        1 
H      -4.30983038       1.67541918       0.07110251        1 
H       0.34501694      -3.82081752       0.70211845        1 
H      -0.68612714      -3.54257988      -0.71317054        1 
H       2.11664349      -2.79290038      -0.51422970        1 
H       1.02923439      -2.14077245      -1.73075576        1 
H       2.03014473       3.79305688       0.59468042        1 
H       0.24938388       3.95682572       0.48804885        1 
H      -4.80153169       0.60130233      -1.26194508        1 
H      -4.01258866       2.17019531      -1.62323671        1 
H      -1.40633966      -2.15573315       1.53675421        1 
C       2.52441542      -0.39820982       0.41644920        6 
O       3.12590254      -0.06298614      -0.82082576        8 
H       3.09709285      -1.18630635       0.92787880        1 
H       2.47699235       0.47118985       1.07812447        1 
C       4.34595532       0.63449410      -0.67128522        6 
H       4.72198421       0.84497437      -1.67272030        1 
H       5.09034986       0.03504155      -0.12815856        1 
H       4.19591860       1.58242338      -0.13683631        1 
