36
Lattice="0.0 0.0 0.0 0.0 0.0 0.0 0.0 0.0 0.0" Properties=species:S:1:pos:R:3:Z:I:1 pbc="F F F"
C      -0.89820374       1.10631024       0.41312113        6 
C       0.22958366       0.05143337       0.65757401        6 
C      -2.30393846       0.60351892       0.15668260        6 
C       0.00742085      -1.35028545       0.11140562        6 
O      -2.70484123      -0.20125851       1.16613572        8 
O      -3.01873533       0.94053289      -0.75300563        8 
O      -1.01988911      -1.42615136      -0.75053317        8 
O       0.74634909      -2.27985442       0.33828561        8 
C      -1.23120716      -2.69008633      -1.40224584        6 
C      -4.01605383      -0.77471541       1.02967271        6 
C      -0.29935553       1.98785515      -0.71446010        6 
C       0.61262957       3.03267330      -0.05560528        6 
C       1.73408044       2.10603312       0.49509048        6 
C       1.38163350       0.74212595      -0.17267064        6 
O       0.66125156       1.12571328      -1.35354065        8 
H      -0.99830950       1.69971337       1.32796746        1 
H       0.50463626      -0.05216466       1.70510456        1 
H      -1.43113223      -3.46914507      -0.66500024        1 
H      -4.06229829      -1.39585793       0.13312665        1 
H       1.00013500       3.72037736      -0.80903032        1 
H       0.10844969       3.61752032       0.71676638        1 
H       2.72542704       2.43152342       0.17824235        1 
H       1.74663837       2.03213932       1.58293218        1 
H      -2.09155534      -2.53768068      -2.04991499        1 
H      -0.35345464      -2.96460017      -1.98880809        1 
H      -4.77426125       0.00686821       0.96363195        1 
H      -4.16437224      -1.37981132       1.92145766        1 
H      -1.02401600       2.34073318      -1.44223761        1 
C       2.59159974      -0.09149255      -0.53854709        6 
O       3.29783275      -0.36068083       0.65861069        8 
H       3.21359545       0.48390927      -1.24004517        1 
H       2.29296749      -1.02126862      -1.03270758        1 
C       4.22457422      -1.42406690       0.52914150        6 
H       4.71407725      -1.54047626       1.49630188        1 
H       4.98562488      -1.20193411      -0.23232670        1 
H       3.71132082      -2.35777241       0.26809909        1 
