36
Lattice="0.0 0.0 0.0 0.0 0.0 0.0 0.0 0.0 0.0" Properties=species:S:1:pos:R:3:Z:I:1 pbc="F F F"
C      -1.01531746      -1.03063560      -0.79875225        6 
C       0.34874945      -0.23936587      -0.90168954        6 
C      -2.20209854      -0.16168348      -0.40534659        6 
C       0.20149976       1.26790898      -0.83945963        6 
O      -2.68722282      -0.44515388       0.81390912        8 
O      -2.68372868       0.66943304      -1.13828495        8 
O      -0.19113614       1.69179021       0.38263596        8 
O       0.35386880       2.00253840      -1.78106457        8 
C      -0.52384716       3.08836648       0.48234367        6 
C      -3.80787968       0.34567091       1.24783600        6 
C      -0.63242116      -2.12258827       0.22554075        6 
C       0.36313995      -3.11383563      -0.41971319        6 
C       1.68322958      -2.29042636      -0.37635079        6 
C       1.18182572      -0.95292992       0.22222926        6 
O       0.18566537      -1.39552141       1.15423098        8 
H      -1.27113273      -1.44375774      -1.77607707        1 
H       0.80344195      -0.42355813      -1.87213228        1 
H      -1.35866213       3.31817931      -0.18181530        1 
H      -4.65923307       0.20244651       0.58056582        1 
H       0.43845651      -4.02279142       0.17853017        1 
H       0.06647004      -3.39983607      -1.43119947        1 
H       2.40904447      -2.74005699       0.30355724        1 
H       2.16052847      -2.16452384      -1.34787806        1 
H      -0.80264193       3.24577768       1.52227803        1 
H       0.33265890       3.70872198       0.21488946        1 
H      -3.54020459       1.40288467       1.26618471        1 
H      -4.03966176      -0.00819312       2.24982660        1 
H      -1.47155868      -2.56758451       0.75112612        1 
C       2.22038632      -0.12020398       0.94371154        6 
O       3.09483861       0.40745947      -0.03867412        8 
H       2.76698892      -0.75503771       1.65583824        1 
H       1.72695624       0.68234190       1.50340624        1 
C       4.05145761       1.30542096       0.49085358        6 
H       4.66627784       1.64673516      -0.34178185        1 
H       4.69229013       0.81433949       1.23627401        1 
H       3.56656139       2.17348159       0.95868647        1 
