36
Lattice="0.0 0.0 0.0 0.0 0.0 0.0 0.0 0.0 0.0" Properties=species:S:1:pos:R:3:Z:I:1 pbc="F F F"
C      -1.06524050      -1.11761521      -0.61673889        6 
C       0.24665401      -0.26106069      -0.79944265        6 
C      -2.39459653      -0.43753710      -0.36516233        6 
C       0.03836554       1.24383605      -0.70545452        6 
O      -2.32529052       0.56437237       0.52643027        8 
O      -3.42823298      -0.81054948      -0.86891832        8 
O       0.23363182       1.76672592       0.51452701        8 
O      -0.24904972       1.91005040      -1.67269301        8 
C      -0.02781927       3.17334118       0.63820848        6 
C      -3.56411123       1.23116840       0.83134881        6 
C      -0.65563211      -2.04919958       0.57614482        6 
C       0.23591913      -3.17360381       0.02313723        6 
C       1.52417392      -2.36967123      -0.31041749        6 
C       1.17554231      -0.95653068       0.24795140        6 
O       0.26713241      -1.25305781       1.32196950        8 
H      -1.23886290      -1.71616894      -1.50952601        1 
H       0.62801759      -0.40755182      -1.80789275        1 
H      -1.06794426       3.38495407       0.38479703        1 
H      -4.28567424       0.52525580       1.24481342        1 
H       0.42143111      -3.91559738       0.80123045        1 
H      -0.20275610      -3.68076060      -0.83780089        1 
H       2.39385408      -2.77287405       0.21026325        1 
H       1.75735132      -2.34318341      -1.37497002        1 
H       0.16919663       3.41452641       1.68075893        1 
H       0.62427783       3.74744787      -0.02171148        1 
H      -3.97926709       1.68679793      -0.06874801        1 
H      -3.30785432       1.99117603       1.56619048        1 
H      -1.47960809      -2.35949954       1.21530531        1 
C       2.36575536      -0.17561793       0.76813370        6 
O       3.07612371       0.30182866      -0.36410236        8 
H       3.00095887      -0.83706109       1.37470940        1 
H       2.02615214       0.65389506       1.39282480        1 
C       4.15185943       1.15405489      -0.02076644        6 
H       4.60874576       1.48795767      -0.95240027        1 
H       4.90584725       0.62777227       0.58108245        1 
H       3.79889202       2.02861820       0.54275962        1 
