36
Lattice="0.0 0.0 0.0 0.0 0.0 0.0 0.0 0.0 0.0" Properties=species:S:1:pos:R:3:Z:I:1 pbc="F F F"
C      -1.01171994      -0.79323876      -0.58752260        6 
C       0.34893199      -0.02166683      -0.67174173        6 
C      -2.10860591      -0.11991893       0.20672740        6 
C       0.27051762       1.43055675      -0.22068293        6 
O      -3.31756302      -0.53342912      -0.24043865        8 
O      -1.96751619       0.61859045       1.14824881        8 
O      -0.60438309       2.07930007      -1.02812259        8 
O       0.88950156       1.97667970       0.65340990        8 
C      -0.88468556       3.44601474      -0.67797813        6 
C      -4.45956865      -0.05279461       0.49306830        6 
C      -0.56070232      -2.08955647       0.15967117        6 
C       0.25996828      -2.96868436      -0.80622573        6 
C       1.60403962      -2.18607372      -0.84144873        6 
C       1.29895954      -0.99275106       0.10316185        6 
O       0.41948372      -1.59510760       1.07288619        8 
H      -1.40856185      -1.02800484      -1.57370930        1 
H       0.65346575       0.03270742      -1.71836573        1 
H       0.02428628       4.04753916      -0.72198828        1 
H      -4.52435189       1.03441864       0.42674640        1 
H       0.38985752      -3.96799638      -0.38799759        1 
H      -0.21401737      -3.06909255      -1.78434742        1 
H       2.41983961      -2.77675604      -0.42243506        1 
H       1.90113908      -1.86067912      -1.83852210        1 
H      -1.60793199       3.79186997      -1.41375222        1 
H      -1.30393660       3.49252730       0.32824040        1 
H      -4.39013115      -0.34448495       1.54198922        1 
H      -5.32301848      -0.51625401       0.02076660        1 
H      -1.35419809      -2.59623172       0.70567610        1 
C       2.50977843      -0.40974006       0.79886041        6 
O       3.30435554       0.21195025      -0.19968798        8 
H       3.06689297      -1.22142581       1.28923607        1 
H       2.19438486       0.31245228       1.55441713        1 
C       4.28088261       1.08427628       0.33995644        6 
H       4.82774004       1.51272548      -0.50073924        1 
H       4.98672568       0.54449296       0.98704066        1 
H       3.80940214       1.89027283       0.91563692        1 
