36
Lattice="0.0 0.0 0.0 0.0 0.0 0.0 0.0 0.0 0.0" Properties=species:S:1:pos:R:3:Z:I:1 pbc="F F F"
C      -0.86632972       1.02902311       0.45785048        6 
C       0.33781250       0.01703179       0.59422194        6 
C      -2.11010381       0.45851541      -0.18695008        6 
C       0.03629051      -1.35253969       0.00394925        6 
O      -3.14936694       0.47664155       0.67693909        8 
O      -2.20089578       0.07418914      -1.32674013        8 
O      -0.97356692      -1.91889717       0.70958845        8 
O       0.57659698      -1.90240478      -0.91871499        8 
C      -1.45536975      -3.18017199       0.21134419        6 
C      -4.39038692      -0.05234753       0.17590264        6 
C      -0.20845349       2.15141837      -0.40530524        6 
C       0.65526418       3.02274521       0.52388585        6 
C       1.81665973       2.03474506       0.83394834        6 
C       1.47242920       0.83193309      -0.09288139        6 
O       0.77162991       1.45674981      -1.18047755        8 
H      -1.14972657       1.40528916       1.43912924        1 
H       0.55629677      -0.15310501       1.64873675        1 
H      -0.66120467      -3.92789220       0.22781900        1 
H      -4.27344741      -1.10372142      -0.09236332        1 
H       1.01378945       3.89950169      -0.01761828        1 
H       0.11933272       3.36324781       1.41176016        1 
H       2.78539434       2.45152289       0.55560796        1 
H       1.87027469       1.74265429       1.88327830        1 
H      -2.26337451      -3.46669959       0.88129859        1 
H      -1.82110535      -3.06218357      -0.80991327        1 
H      -4.71923084       0.50601536      -0.70171783        1 
H      -5.10279662       0.05665267       0.99064920        1 
H      -0.89312471       2.67557783      -1.06818754        1 
C       2.67070259       0.06657031      -0.61611976        6 
O       3.19695619      -0.68251029       0.47059236        8 
H       3.41960966       0.77748415      -0.99426248        1 
H       2.36187735      -0.59215849      -1.42965138        1 
C       4.14578603      -1.64945525       0.05961828        6 
H       4.48317501      -2.17042954       0.95626378        1 
H       5.01276578      -1.18098498      -0.42749507        1 
H       3.69486384      -2.37202926      -0.63274159        1 
