36
Lattice="0.0 0.0 0.0 0.0 0.0 0.0 0.0 0.0 0.0" Properties=species:S:1:pos:R:3:Z:I:1 pbc="F F F"
C      -1.00396061       1.20134795       0.55173427        6 
C       0.22793839       0.25094957       0.79685268        6 
C      -2.35284294       0.66876080       0.09007324        6 
C      -0.00555877      -1.24137918       0.63693937        6 
O      -2.53728040      -0.63564161       0.33404019        8 
O      -3.21439556       1.39058072      -0.35387699        8 
O      -0.06222283      -1.62843951      -0.65367274        8 
O      -0.12783590      -2.00147708       1.56488542        8 
C      -0.35539811      -3.01557413      -0.87862128        6 
C      -3.82645685      -1.18106490      -0.00314527        6 
C      -0.41558958       2.21956684      -0.46188361        6 
C       0.55668146       3.16629495       0.26794004        6 
C       1.76798155       2.21889095       0.50441920        6 
C       1.27773387       0.91019304      -0.17154283        6 
O       0.46200489       1.40129539      -1.24725738        8 
H      -1.24940210       1.70900482       1.48943102        1 
H       0.55799526       0.35212761       1.82837633        1 
H      -1.31028509      -3.27835358      -0.42092782        1 
H      -3.98702728      -1.12712476      -1.08087464        1 
H       0.82668808       4.00077577      -0.38068594        1 
H       0.13419479       3.57458028       1.18804153        1 
H       2.66271768       2.58219706      -0.00349773        1 
H       2.01485176       2.07444205       1.55635406        1 
H      -0.40242529      -3.13145530      -1.95954209        1 
H       0.42674346      -3.64964404      -0.45740897        1 
H      -4.61830712      -0.63345321       0.50880211        1 
H      -3.79580078      -2.21551892       0.33150064        1 
H      -1.16081789       2.68808577      -1.09806782        1 
C       2.37371237       0.02226287      -0.72863857        6 
O       2.97588462      -0.64600490       0.36720450        8 
H       3.11001619       0.64235710      -1.25970694        1 
H       1.94385742      -0.69191654      -1.43692723        1 
C       3.94902062      -1.59446178      -0.02426746        6 
H       4.34177204      -2.04629487       0.88653980        1 
H       4.77337671      -1.12121682      -0.57578521        1 
H       3.50873709      -2.38000664      -0.65417169        1 
