36
Lattice="0.0 0.0 0.0 0.0 0.0 0.0 0.0 0.0 0.0" Properties=species:S:1:pos:R:3:Z:I:1 pbc="F F F"
C      -1.34685408      -0.71346419      -0.87698689        6 
C       0.09668173      -0.09898463      -0.82474035        6 
C      -2.49475748       0.13110018      -0.33617019        6 
C       0.20668861       1.36177241      -0.43045712        6 
O      -2.54964414       0.15427598       0.99997509        8 
O      -3.34104680       0.61483585      -1.05358037        8 
O       1.27053970       1.91952020      -1.04746298        8 
O      -0.50942121       1.97356293       0.32318683        8 
C       1.53771877       3.29578189      -0.72667605        6 
C      -3.56504790       0.99004975       1.57722975        6 
C      -1.12433477      -2.00238277      -0.03493111        6 
C      -0.25303026      -3.00155333      -0.82890322        6 
C       1.16204521      -2.37230285      -0.66147001        6 
C       0.82563612      -1.10041890       0.15468659        6 
O      -0.23668861      -1.55395491       0.99767534        8 
H      -1.61947195      -0.93871863      -1.90695796        1 
H       0.56127583      -0.17382655      -1.80654945        1 
H       1.72556651       3.41008478       0.34237526        1 
H      -4.55602465       0.69393185       1.22942027        1 
H      -0.30616011      -3.99349937      -0.37799038        1 
H      -0.56552311      -3.08874074      -1.87164902        1 
H       1.82015628      -3.01640846      -0.07569844        1 
H       1.66185570      -2.14847403      -1.60301264        1 
H       2.42296065       3.55914281      -1.30114647        1 
H       0.69300876       3.92561198      -1.00982332        1 
H      -3.37879321       2.03135696       1.31010702        1 
H      -3.47506324       0.85133742       2.65238173        1 
H      -2.02604268      -2.41039359       0.41452215        1 
C       1.94827083      -0.55808733       1.01352609        6 
O       3.08123290      -0.36173005       0.18878495        8 
H       2.16352867      -1.28936019       1.80581158        1 
H       1.64387630       0.38032209       1.49813182        1 
C       4.14765120       0.27784829       0.86143260        6 
H       4.97192853       0.35974818       0.15293288        1 
H       4.47875850      -0.30294402       1.73374763        1 
H       3.86055636       1.28404823       1.19796785        1 
