36
Lattice="0.0 0.0 0.0 0.0 0.0 0.0 0.0 0.0 0.0" Properties=species:S:1:pos:R:3:Z:I:1 pbc="F F F"
C      -0.81354429      -0.88670272      -0.65617298        6 
C       0.38843427       0.13314752      -0.62384325        6 
C      -2.23332591      -0.35508103      -0.65955684        6 
C       0.14501146       1.46213894       0.10177476        6 
O      -2.88196708      -0.60555948       0.49759374        8 
O      -2.73503605       0.21815452      -1.59348886        8 
O      -1.08535580       1.94209776      -0.14477140        8 
O       0.94256893       2.05320508       0.78700453        8 
C      -1.42088716       3.20091240       0.46474983        6 
C      -4.23216601      -0.11551043       0.57839173        6 
C      -0.38435826      -1.92702294       0.42455936        6 
C       0.48101443      -2.97128539      -0.29299973        6 
C       1.67544577      -2.06781334      -0.70900067        6 
C       1.42003261      -0.77166452       0.12847535        6 
O       0.59578968      -1.23387006       1.21602536        8 
H      -0.75753297      -1.36886713      -1.63606060        1 
H       0.71236967       0.38615913      -1.63480938        1 
H      -0.73836286       3.98214569       0.12755972        1 
H      -4.84605140      -0.55194879      -0.21083849        1 
H       0.79225064      -3.74846827       0.40744068        1 
H      -0.02394275      -3.44642766      -1.13693037        1 
H       2.63583213      -2.50360739      -0.43465974        1 
H       1.70581171      -1.85783031      -1.77924749        1 
H      -2.43683720       3.41361760       0.13928613        1 
H      -1.36900739       3.12184658       1.55167604        1 
H      -4.24547209       0.97125726       0.48244915        1 
H      -4.59327026      -0.41846767       1.55885271        1 
H      -1.18241193      -2.29124272       1.06339932        1 
C       2.70068116      -0.15411019       0.65615002        6 
O       3.38082755       0.39960698      -0.46000340        8 
H       3.30391877      -0.94846417       1.12066312        1 
H       2.48552579       0.61075826       1.40236580        1 
C       4.48980498       1.19560106      -0.08591505        6 
H       4.93692442       1.57672807      -1.00454523        1 
H       5.24095468       0.60673315       0.45964319        1 
H       4.17373504       2.03887078       0.54114430        1 
