36
Lattice="0.0 0.0 0.0 0.0 0.0 0.0 0.0 0.0 0.0" Properties=species:S:1:pos:R:3:Z:I:1 pbc="F F F"
C      -1.12716386      -0.66852343      -0.41166861        6 
C       0.26361671      -0.02757779      -0.69920639        6 
C      -2.35200829       0.21709324      -0.30682193        6 
C       0.46937682       1.44475208      -0.36614598        6 
O      -3.44938459      -0.54295553      -0.55901143        8 
O      -2.42148219       1.38272121      -0.01440795        8 
O       0.14963273       1.75699016       0.89525789        8 
O       0.98718591       2.21980865      -1.13782606        8 
C       0.25699862       3.14354203       1.25181622        6 
C      -4.72118452       0.12113385      -0.43975579        6 
C      -0.82695215      -1.58017615       0.83356897        6 
C      -0.26912393      -2.90640622       0.28997601        6 
C       1.08729283      -2.40713475      -0.29237402        6 
C       1.14190380      -0.94025918       0.23259121        6 
O       0.33612975      -0.99387682       1.41962623        8 
H      -1.35871519      -1.33294839      -1.24596373        1 
H       0.54593075      -0.13497130      -1.74353975        1 
H      -0.43365959       3.73595304       0.64967179        1 
H      -4.78666584       0.94976601      -1.14640615        1 
H      -0.11302916      -3.60834655       1.11095811        1 
H      -0.91976356      -3.37692457      -0.44897924        1 
H       1.93118518      -2.97575183       0.09961427        1 
H       1.13692748      -2.45295348      -1.38063632        1 
H      -0.01771747       3.19201653       2.30314559        1 
H       1.27518297       3.50553412       1.09992398        1 
H      -4.86168213       0.50178979       0.57320426        1 
H      -5.46599270      -0.63754959      -0.67026111        1 
H      -1.62408898      -1.64655330       1.57018612        1 
C       2.53122598      -0.43423389       0.55883173        6 
O       3.28113823      -0.46622585      -0.64135423        8 
H       2.98200354      -1.08203575       1.32490261        1 
H       2.48252127       0.58309114       0.96604159        1 
C       4.51012337       0.23073747      -0.55015246        6 
H       5.00048127       0.14231232      -1.51953136        1 
H       5.16128961      -0.20126442       0.22282298        1 
H       4.34492982       1.29304171      -0.32718039        1 
