36
Lattice="0.0 0.0 0.0 0.0 0.0 0.0 0.0 0.0 0.0" Properties=species:S:1:pos:R:3:Z:I:1 pbc="F F F"
C      -1.21193881      -0.69478657      -0.68128706        6 
C       0.26983271      -0.20028393      -0.83105197        6 
C      -2.21386351       0.28515993      -0.08928224        6 
C       0.44314394       1.31285013      -0.79087350        6 
O      -3.38988915      -0.34948832       0.12384443        8 
O      -2.05418368       1.45796031       0.13000624        8 
O       0.78188960       1.80161595       0.41179710        8 
O       0.27831781       1.99734739      -1.77145963        8 
C       0.78115539       3.23582908       0.52017605        6 
C      -4.46077656       0.45940191       0.64633137        6 
C      -1.01268711      -1.91345253       0.26795037        6 
C      -0.28458225      -3.05126668      -0.47585834        6 
C       1.17260242      -2.50906882      -0.49920392        6 
C       1.00123273      -1.13334670       0.19578588        6 
O      -0.01764793      -1.41793954       1.17377208        8 
H      -1.62527769      -1.00622935      -1.64274958        1 
H       0.60600384      -0.45215639      -1.83604474        1 
H      -0.22333618       3.61384173       0.32657040        1 
H      -4.68341937       1.28310258      -0.03355997        1 
H      -0.35664262      -3.97949332       0.09273567        1 
H      -0.70031446      -3.23154938      -1.46927561        1 
H       1.83842891      -3.13618549       0.09639119        1 
H       1.59643376      -2.42027213      -1.49917252        1 
H       1.08198533       3.44962582       1.54381112        1 
H       1.48278924       3.67593700      -0.18985220        1 
H      -4.19118878       0.86221731       1.62371745        1 
H      -5.31391456      -0.21015225       0.73029097        1 
H      -1.90438442      -2.20138938       0.81671863        1 
C       2.24528790      -0.61167224       0.88204763        6 
O       3.14506156      -0.20500191      -0.13796066        8 
H       2.68667026      -1.41379561       1.49089093        1 
H       1.98972769       0.22634864       1.53452869        1 
C       4.26511979       0.49760494       0.36412941        6 
H       4.88439945       0.76949201      -0.49088078        1 
H       4.85557044      -0.12406196       1.05185296        1 
H       3.95338701       1.40973039       0.89054202        1 
