36
Lattice="0.0 0.0 0.0 0.0 0.0 0.0 0.0 0.0 0.0" Properties=species:S:1:pos:R:3:Z:I:1 pbc="F F F"
C      -1.00583729      -1.03993242      -0.78595396        6 
C       0.24169722      -0.09456639      -0.76734727        6 
C      -2.15321595      -0.74168756       0.18421149        6 
C      -0.02853123       1.38219438      -0.54168224        6 
O      -2.19549472       0.52990117       0.61128233        8 
O      -2.91984140      -1.59021558       0.57159686        8 
O      -0.89851430       1.80412410      -1.49108654        8 
O       0.51966494       2.13124591       0.22586633        8 
C      -1.28186218       3.18565119      -1.42812740        6 
C      -3.20168045       0.84112330       1.59404520        6 
C      -0.33880776      -2.33355969      -0.24793375        6 
C       0.77518908      -2.83866607      -1.19053191        6 
C       1.95485833      -1.89604880      -0.81547091        6 
C       1.24336687      -0.90213464       0.13033172        6 
O       0.38446402      -1.79062674       0.87472814        8 
H      -1.43118958      -1.14778083      -1.78517571        1 
H       0.63956049      -0.09326070      -1.78618575        1 
H      -0.40902209       3.83420036      -1.51644083        1 
H      -3.07107991       0.21579335       2.47774469        1 
H       1.00966084      -3.88256568      -0.97969136        1 
H       0.48420731      -2.76686510      -2.24116436        1 
H       2.72850718      -2.43079410      -0.26157907        1 
H       2.42424328      -1.40459708      -1.66719182        1 
H      -1.95915405       3.33861603      -2.26582701        1 
H      -1.79078112       3.39324780      -0.48478527        1 
H      -4.19792483       0.68000497       1.18004161        1 
H      -3.04930319       1.88980835       1.83863990        1 
H      -1.04924944      -3.07768723       0.09775059        1 
C       2.15033640      -0.14519629       1.07446853        6 
O       3.09094345       0.55658091       0.27762353        8 
H       2.65866781      -0.86700620       1.73021714        1 
H       1.56915168       0.54467958       1.69256296        1 
C       3.76424485       1.57899561       0.98854720        6 
H       4.47215957       2.03592903       0.29624765        1 
H       4.31718925       1.17235413       1.84729410        1 
H       3.05731536       2.33998475       1.34000511        1 
