36
Lattice="0.0 0.0 0.0 0.0 0.0 0.0 0.0 0.0 0.0" Properties=species:S:1:pos:R:3:Z:I:1 pbc="F F F"
C      -0.83784303       1.05778778       0.41766610        6 
C       0.30010711      -0.03142899       0.55338384        6 
C      -2.18516448       0.61101305      -0.11299282        6 
C      -0.00124665      -1.40335843      -0.04599044        6 
O      -3.03287526       0.34272966       0.90327457        8 
O      -2.51286726       0.59718296      -1.27405661        8 
O      -1.25782136      -1.78916863       0.25865667        8 
O       0.77093965      -2.12133126      -0.62910086        8 
C      -1.66796671      -3.07783016      -0.23469722        6 
C      -4.34029442      -0.11540200       0.52337999        6 
C      -0.14451037       2.10894016      -0.49996225        6 
C       0.74158792       2.99486376       0.38764765        6 
C       1.83042725       1.96425285       0.79858323        6 
C       1.48401632       0.74320318      -0.10826100        6 
O       0.82386463       1.34511915      -1.23256437        8 
H      -1.02998752       1.47772746       1.40545546        1 
H       0.50294224      -0.22828700       1.60859075        1 
H      -0.99914132      -3.85799028       0.13053409        1 
H      -4.26520685      -1.03809981      -0.05502099        1 
H       1.16516988       3.80938809      -0.20236684        1 
H       0.20475110       3.42758259       1.23427921        1 
H       2.83518871       2.32208420       0.57208670        1 
H       1.80499311       1.70585970       1.85795454        1 
H      -2.67510683      -3.22603306       0.14852740        1 
H      -1.66807064      -3.07941569      -1.32554653        1 
H      -4.85451940       0.63842491      -0.07491941        1 
H      -4.87052891      -0.29186975       1.45679329        1 
H      -0.81288125       2.60873185      -1.19547142        1 
C       2.70002385      -0.03228422      -0.57203235        6 
O       3.25184883      -0.66871024       0.57020947        8 
H       3.42170154       0.67506776      -1.00662219        1 
H       2.42209857      -0.76382589      -1.33221547        1 
C       4.22480407      -1.64169575       0.23851356        6 
H       4.58659990      -2.06710558       1.17512711        1 
H       5.07224350      -1.19495387      -0.30095745        1 
H       3.78818152      -2.43805736      -0.37727093        1 
