36
Lattice="0.0 0.0 0.0 0.0 0.0 0.0 0.0 0.0 0.0" Properties=species:S:1:pos:R:3:Z:I:1 pbc="F F F"
C      -0.87708296       1.16997287       0.54312843        6 
C       0.27110971       0.07852206       0.62357127        6 
C      -2.08919610       0.82195620      -0.31383687        6 
C      -0.11516731      -1.30948333       0.14204650        6 
O      -2.91928346      -0.02176161       0.33366099        8 
O      -2.32811870       1.27279246      -1.40581670        8 
O      -0.91379674      -1.89115590       1.06148694        8 
O       0.28276127      -1.89026021      -0.83757662        8 
C      -1.37855058      -3.21478567       0.75034939        6 
C      -4.09762260      -0.42696553      -0.38748958        6 
C      -0.09156096       2.34510418      -0.08595453        6 
C       0.89382994       2.92578829       0.94782314        6 
C       2.01248590       1.84403388       0.93621038        6 
C       1.44417694       0.82429547      -0.08792429        6 
O       0.76833520       1.67724172      -1.02169619        8 
H      -1.24670744       1.39223527       1.54511992        1 
H       0.51679085      -0.07051039       1.67525779        1 
H      -0.53728040      -3.89908964       0.63030760        1 
H      -3.82229804      -0.91505993      -1.32366528        1 
H       1.26972984       3.89269540       0.61068397        1 
H       0.43575898       3.06640638       1.92939538        1 
H       2.95318113       2.24952715       0.55982519        1 
H       2.20670371       1.39658958       1.91106091        1 
H      -1.99687588      -3.51095006       1.59483413        1 
H      -1.96613341      -3.20704592      -0.16964435        1 
H      -4.72900477       0.43561008      -0.60661779        1 
H      -4.61400421      -1.12172808       0.27140547        1 
H      -0.71397122       3.06009894      -0.61609965        1 
C       2.48920017      -0.01110034      -0.79645029        6 
O       3.06316366      -0.86607170       0.18241562        8 
H       3.25154716       0.65572226      -1.22414894        1 
H       2.02978190      -0.58978974      -1.60024730        1 
C       3.86161257      -1.89005409      -0.38122558        6 
H       4.25502239      -2.48285785       0.44524623        1 
H       4.70337801      -1.47465904      -0.95330131        1 
H       3.26529231      -2.53451836      -1.03957025        1 
