36
Lattice="0.0 0.0 0.0 0.0 0.0 0.0 0.0 0.0 0.0" Properties=species:S:1:pos:R:3:Z:I:1 pbc="F F F"
C      -1.02864193      -1.02940721      -0.80479123        6 
C       0.34943073      -0.26018813      -0.90206924        6 
C      -2.19300120      -0.15046851      -0.36330770        6 
C       0.20930015       1.24902901      -0.89141556        6 
O      -2.65979023      -0.46287874       0.85686265        8 
O      -2.67107884       0.71475599      -1.05729455        8 
O      -0.04202363       1.73569905       0.34373141        8 
O       0.21774357       1.92884389      -1.88492626        8 
C      -0.37813375       3.13416395       0.40563406        6 
C      -3.75494059       0.33612014       1.33864048        6 
C      -0.64965986      -2.14484903       0.19509535        6 
C       0.34942095      -3.12447312      -0.46378163        6 
C       1.67399014      -2.31178650      -0.37944790        6 
C       1.16782210      -0.97943556       0.22639781        6 
O       0.16202680      -1.43496777       1.14326063        8 
H      -1.30529310      -1.41412782      -1.78774467        1 
H       0.80035957      -0.47137688      -1.86931768        1 
H      -1.27769439       3.32614928      -0.18150872        1 
H      -4.62318430       0.22956726       0.68638561        1 
H       0.41078406      -4.05048770       0.10919205        1 
H       0.06442478      -3.38014269      -1.48672442        1 
H       2.37951143      -2.77628234       0.31183490        1 
H       2.17484699      -2.17672808      -1.33799563        1 
H      -0.55188257       3.34339707       1.45925145        1 
H       0.44076260       3.74387881       0.02153930        1 
H      -3.46564768       1.38688884       1.38258746        1 
H      -3.97216798      -0.04340376       2.33446972        1 
H      -1.49139655      -2.60116745       0.70660236        1 
C       2.19795952      -0.14947594       0.96369162        6 
O       3.02651101       0.45648929      -0.01488284        8 
H       2.78685039      -0.79676904       1.62927506        1 
H       1.69205488       0.60879612       1.57031610        1 
C       3.96246436       1.36484309       0.53365616        6 
H       4.52744548       1.78492929      -0.29844175        1 
H       4.65460104       0.86036396       1.22209125        1 
H       3.45751547       2.17799797       1.07334043        1 
