36
Lattice="0.0 0.0 0.0 0.0 0.0 0.0 0.0 0.0 0.0" Properties=species:S:1:pos:R:3:Z:I:1 pbc="F F F"
C      -0.88477323       1.06383351       0.36713044        6 
C       0.22457249      -0.00037725       0.62533469        6 
C      -2.31946422       0.61143025       0.20684749        6 
C       0.00703281      -1.37773328       0.00978814        6 
O      -2.66403004      -0.23999881       1.19730127        8 
O      -3.10498240       1.05956997      -0.59096569        8 
O      -1.10050922      -1.45530586      -0.74783951        8 
O       0.81001371      -2.27842340       0.08418722        8 
C      -1.30088971      -2.67882558      -1.47624866        6 
C      -4.01627167      -0.72674577       1.16749522        6 
C      -0.29383305       1.90758003      -0.79481335        6 
C       0.58701516       2.99277476      -0.16211697        6 
C       1.68627628       2.09712500       0.47857315        6 
C       1.39335745       0.70704023      -0.16905828        6 
O       0.69832670       1.04371750      -1.38285576        8 
H      -0.93754115       1.69144655       1.26433953        1 
H       0.47012857      -0.13515788       1.67687253        1 
H      -1.39639202      -3.52007429      -0.78814091        1 
H      -4.19805812      -1.27755476       0.24271250        1 
H       1.00260678       3.63780331      -0.93783196        1 
H       0.05441434       3.61640399       0.55895008        1 
H       2.69097567       2.42854748       0.21565394        1 
H       1.63124060       2.05430487       1.56717251        1 
H      -2.22081767      -2.53127403      -2.03750453        1 
H      -0.46319497      -2.85739610      -2.15146070        1 
H      -4.72603815       0.09880749       1.23852420        1 
H      -4.10739277      -1.38620640       2.02791074        1 
H      -1.01677686       2.21448374      -1.54481110        1 
C       2.64422293      -0.08663097      -0.48099052        6 
O       3.29820695      -0.34488738       0.74906690        8 
H       3.28170511       0.51852707      -1.14269746        1 
H       2.40061323      -1.01916768      -0.99638888        1 
C       4.28736495      -1.35310520       0.64721728        6 
H       4.72665377      -1.47131494       1.63812725        1 
H       5.07791098      -1.06931913      -0.06206782        1 
H       3.84294166      -2.30513047       0.33160417        1 
