36
Lattice="0.0 0.0 0.0 0.0 0.0 0.0 0.0 0.0 0.0" Properties=species:S:1:pos:R:3:Z:I:1 pbc="F F F"
C      -0.95260794       1.10589085       0.42012698        6 
C       0.19852917       0.09567267       0.69056111        6 
C      -2.39035791       0.64938703       0.27931931        6 
C       0.01540058      -1.33432303       0.21479055        6 
O      -2.59541381      -0.60387334       0.72237831        8 
O      -3.28794936       1.40149800      -0.01953869        8 
O      -0.60357381      -1.41641881      -0.97673535        8 
O       0.48581485      -2.29101768       0.78455414        8 
C      -0.77321540      -2.73699102      -1.51318260        6 
C      -3.96095834      -1.05896597       0.74811787        6 
C      -0.38042884       1.99373688      -0.72397247        6 
C       0.51937049       3.06167973      -0.07959213        6 
C       1.67386016       2.16278807       0.45583438        6 
C       1.32309740       0.78453401      -0.17784683        6 
O       0.58904006       1.14616562      -1.35720455        8 
H      -1.03515081       1.73627362       1.31349450        1 
H       0.47906656       0.04094285       1.73910624        1 
H      -1.39140858      -3.34151556      -0.84659679        1 
H      -4.37793029      -1.06057856      -0.26017588        1 
H       0.87835664       3.75489686      -0.84202580        1 
H       0.01404917       3.63771350       0.69816781        1 
H       2.64938756       2.50077548       0.10405721        1 
H       1.71796955       2.10958010       1.54404549        1 
H      -1.26637905      -2.59864455      -2.47299498        1 
H       0.19259748      -3.22728089      -1.64549367        1 
H      -4.56634697      -0.41449129       1.38700461        1 
H      -3.91983365      -2.06961478       1.14811423        1 
H      -1.11502007       2.33869395      -1.44640684        1 
C       2.51599789      -0.07110047      -0.54844195        6 
O       3.23733428      -0.33294204       0.63928436        8 
H       3.13568214       0.47253266      -1.27654813        1 
H       2.18732288      -1.00502912      -1.02196589        1 
C       4.19650091      -1.36429871       0.49169383        6 
H       4.69588435      -1.47667361       1.45395674        1 
H       4.94349278      -1.11039612      -0.27358990        1 
H       3.71334069      -2.31287772       0.22405171        1 
