36
Lattice="0.0 0.0 0.0 0.0 0.0 0.0 0.0 0.0 0.0" Properties=species:S:1:pos:R:3:Z:I:1 pbc="F F F"
C      -0.91178699       1.02127854       0.51061998        6 
C       0.29888104       0.02234421       0.63950940        6 
C      -2.13665121       0.52249060      -0.23446695        6 
C       0.06845001      -1.43454436       0.25919441        6 
O      -3.19690992       0.42561443       0.60036997        8 
O      -2.20552669       0.31606294      -1.41977087        8 
O      -1.22536869      -1.78364889       0.39776098        8 
O       0.93452159      -2.23570530       0.00783654        8 
C      -1.55491995      -3.15653132       0.11994486        6 
C      -4.41680363      -0.04420894       0.00277945        6 
C      -0.24345685       2.17219309      -0.29810054        6 
C       0.68914602       2.97344530       0.62897949        6 
C       1.87568372       1.98180757       0.77843743        6 
C       1.42066696       0.80530496      -0.13019334        6 
O       0.67030821       1.47577723      -1.15325585        8 
H      -1.23552094       1.35428250       1.49531263        1 
H       0.58018407      -0.05157394       1.69393973        1 
H      -0.97989067      -3.82537231       0.76149588        1 
H      -4.27700210      -1.04723791      -0.40469470        1 
H       1.00020118       3.89797471       0.14034521        1 
H       0.21514097       3.23516893       1.57734832        1 
H       2.80254998       2.40458657       0.38841100        1 
H       2.06406982       1.66429273       1.80365424        1 
H      -2.61901104      -3.24491822       0.32742352        1 
H      -1.34829872      -3.38841964      -0.92577207        1 
H      -4.73559233       0.62318926      -0.79940817        1 
H      -5.15016409      -0.05672145       0.80634202        1 
H      -0.93427073       2.75302569      -0.90455997        1 
C       2.56520975       0.03316298      -0.75159114        6 
O       3.37357408      -0.45020297       0.30831401        8 
H       3.13608154       0.72239088      -1.39080361        1 
H       2.19152421      -0.78736129      -1.36888832        1 
C       4.23128651      -1.50592959      -0.08381571        6 
H       4.80951510      -1.79041136       0.79600828        1 
H       4.92431751      -1.18913011      -0.87657222        1 
H       3.65130340      -2.36872608      -0.43135495        1 
