36
Lattice="0.0 0.0 0.0 0.0 0.0 0.0 0.0 0.0 0.0" Properties=species:S:1:pos:R:3:Z:I:1 pbc="F F F"
C      -1.50085687      -0.47935075      -0.90634786        6 
C       0.00073719      -0.09170277      -0.86897675        6 
C      -2.53543681       0.23058061      -0.03892386        6 
C       0.40477385       1.37074907      -0.78854790        6 
O      -2.02758068       0.90532387       0.99146902        8 
O      -3.72166661       0.04480989      -0.20273071        8 
O       1.70223629       1.47705284      -1.16507177        8 
O      -0.26076799       2.32332770      -0.47454393        8 
C       2.26856447       2.79628289      -1.12151264        6 
C      -2.97450609       1.49540305       1.89700157        6 
C      -1.37488978      -1.90325707      -0.27175998        6 
C      -0.45871874      -2.83095555      -1.11002925        6 
C       0.96035172      -2.38627618      -0.64073234        6 
C       0.59302385      -1.13181574       0.17776690        6 
O      -0.57196606      -1.59976671       0.87820304        8 
H      -1.90017345      -0.50925017      -1.91981457        1 
H       0.41036838      -0.38443844      -1.83853973        1 
H       2.22160919       3.20079982      -0.10855406        1 
H      -3.55986166       0.71983318       2.39426878        1 
H      -0.65369912      -3.87689020      -0.87123303        1 
H      -0.61621383      -2.70006000      -2.18296223        1 
H       1.41433738      -3.13016198       0.01590287        1 
H       1.65418830      -2.17267372      -1.45294620        1 
H       3.30258715       2.67739511      -1.43780146        1 
H       1.73462447       3.46699652      -1.79689561        1 
H      -3.64602058       2.16714705       1.36081507        1 
H      -2.37623154       2.04791721       2.61768293        1 
H      -2.32398680      -2.33286510       0.03837045        1 
C       1.61145511      -0.64471195       1.18863265        6 
O       2.89421350      -0.66570815       0.59172642        8 
H       1.57689737      -1.31399634       2.05995812        1 
H       1.35266641       0.36662667       1.53254393        1 
C       3.86731540       0.02314749       1.34881394        6 
H       4.81352148      -0.06747732       0.81487990        1 
H       3.98035314      -0.40775288       2.35385426        1 
H       3.61194004       1.08764448       1.44966408        1 
