36
Lattice="0.0 0.0 0.0 0.0 0.0 0.0 0.0 0.0 0.0" Properties=species:S:1:pos:R:3:Z:I:1 pbc="F F F"
C      -1.03525643      -0.82603594      -0.83232040        6 
C       0.32240667      -0.01382466      -0.74104188        6 
C      -2.19947328      -0.15359106      -0.10917523        6 
C       0.14430128       1.41817094      -0.26990029        6 
O      -2.59953380      -0.81963558       0.98546121        8 
O      -2.72739783       0.86322285      -0.49461433        8 
O      -0.24518211       2.17652910      -1.30998493        8 
O       0.36127950       1.85690423       0.83390902        8 
C      -0.61059261       3.53442555      -1.00818769        6 
C      -3.67492631      -0.22151537       1.73353009        6 
C      -0.58601608      -2.16476166      -0.20280927        6 
C       0.40872264      -2.88222026      -1.14281674        6 
C       1.71424368      -2.07937332      -0.87709086        6 
C       1.20436334      -0.99100374       0.10094593        6 
O       0.24487525      -1.72223151       0.88246956        8 
H      -1.34614301      -0.92139966      -1.87356319        1 
H       0.73194982       0.07353002      -1.74661003        1 
H       0.22155968       4.06223938      -0.54039656        1 
H      -4.56912632      -0.13399943       1.11463116        1 
H       0.51603072      -3.92871938      -0.85451140        1 
H       0.08766196      -2.85440379      -2.18669250        1 
H       2.46369009      -2.69330192      -0.37440586        1 
H       2.16722281      -1.65924102      -1.77519951        1 
H      -0.86353339       3.98472334      -1.96534910        1 
H      -1.47593920       3.54364026      -0.34424604        1 
H      -3.38165504       0.76751657       2.08770797        1 
H      -3.84925050      -0.89235297       2.57158394        1 
H      -1.39498527      -2.77631772       0.18431788        1 
C       2.25700084      -0.38167087       1.00002130        6 
O       3.12000114       0.37962645       0.16744441        8 
H       2.81190205      -1.18561622       1.50471298        1 
H       1.78229626       0.25185768       1.75313482        1 
C       4.00272828       1.20721820       0.90162699        6 
H       4.60380010       1.75804336       0.17761714        1 
H       4.67009171       0.61371290       1.54252029        1 
H       3.44567989       1.91672279       1.52665457        1 
