36
Lattice="0.0 0.0 0.0 0.0 0.0 0.0 0.0 0.0 0.0" Properties=species:S:1:pos:R:3:Z:I:1 pbc="F F F"
C      -0.93635797       1.19919943       0.49091045        6 
C       0.21963249       0.16783286       0.74592870        6 
C      -2.28046837       0.63849841       0.06698380        6 
C      -0.07756367      -1.27344814       0.38026273        6 
O      -2.66005750      -0.35606740       0.89687338        8 
O      -2.97153207       1.06709137      -0.82205287        8 
O      -0.60282567      -1.38655840      -0.85769439        8 
O       0.15921201      -2.21943417       1.09034807        8 
C      -0.92850474      -2.71692628      -1.29175146        6 
C      -3.92153795      -0.98352869       0.60461751        6 
C      -0.29736398       2.15165698      -0.54820149        6 
C       0.68060149       3.09381245       0.17882742        6 
C       1.82957429       2.10440390       0.53317565        6 
C       1.34110265       0.80134740      -0.15546949        6 
O       0.59502689       1.29094245      -1.27587771        8 
H      -1.14262101       1.73136869       1.42484082        1 
H       0.52447540       0.14640968       1.78895742        1 
H      -1.65925608      -3.16886697      -0.61854821        1 
H      -3.91127574      -1.39742171      -0.40513766        1 
H       1.02464066       3.87403048      -0.50185553        1 
H       0.23666364       3.57592821       1.05236200        1 
H       2.78121943       2.41836266       0.10197488        1 
H       1.97826568       1.97085249       1.60466095        1 
H      -1.34363124      -2.60144652      -2.29047612        1 
H      -0.03453763      -3.34232404      -1.31629752        1 
H      -4.73635055      -0.26281241       0.68803712        1 
H      -4.02951082      -1.77389774       1.34389371        1 
H      -1.00758296       2.60758140      -1.23167326        1 
C       2.43742596      -0.13097683      -0.62599225        6 
O       3.17256805      -0.53073934       0.51502406        8 
H       3.07827874       0.40053863      -1.34441263        1 
H       2.00848021      -1.00007372      -1.14223761        1 
C       4.10248749      -1.56261509       0.24504257        6 
H       4.60788990      -1.79210168       1.18296316        1 
H       4.84802025      -1.24693247      -0.49840249        1 
H       3.59554448      -2.46622785      -0.11951858        1 
