36
Lattice="0.0 0.0 0.0 0.0 0.0 0.0 0.0 0.0 0.0" Properties=species:S:1:pos:R:3:Z:I:1 pbc="F F F"
C      -1.20412469      -0.60054028      -0.55559902        6 
C       0.22198231       0.02569213      -0.61012030        6 
C      -2.35844804       0.34091659      -0.28195035        6 
C       0.36554337       1.34907065       0.12753756        6 
O      -3.47539270      -0.36201754       0.01067791        8 
O      -2.33016695       1.54312782      -0.35224991        8 
O       0.94244606       2.27252392      -0.67047788        8 
O       0.04234711       1.56207967       1.26818329        8 
C       1.09326509       3.58177930      -0.09452002        6 
C      -4.66462014       0.41403171       0.25424547        6 
C      -1.00592722      -1.82186008       0.39485571        6 
C      -0.40143647      -2.97014668      -0.43334706        6 
C       1.01222807      -2.38755350      -0.72832218        6 
C       1.01345330      -1.10275392       0.14918880        6 
O       0.10454440      -1.43138604       1.20939200        8 
H      -1.44065725      -0.98542463      -1.55431706        1 
H       0.58009681       0.15212682      -1.62826975        1 
H       1.73233158       3.54195383       0.78935231        1 
H      -4.93399383       0.98723517      -0.63432630        1 
H      -0.33835927      -3.87329854       0.17604078        1 
H      -0.97707836      -3.20355664      -1.33146767        1 
H       1.80525160      -3.06431902      -0.40763201        1 
H       1.17786527      -2.16027729      -1.78188917        1 
H       1.55221855       4.18930817      -0.87158028        1 
H       0.11807797       3.98315786       0.18498348        1 
H      -4.50607170       1.09710712       1.08955673        1 
H      -5.43946486      -0.31148777       0.49184433        1 
H      -1.86185257      -2.06305786       1.01772170        1 
C       2.35977464      -0.72123774       0.72680218        6 
O       3.21409552      -0.40909739      -0.35990871        8 
H       2.75458807      -1.56892517       1.30556335        1 
H       2.25401793       0.13294669       1.40676717        1 
C       4.48257147       0.06433985       0.04882140        6 
H       5.05504664       0.27106081      -0.85558712        1 
H       5.01679223      -0.68522030       0.64935784        1 
H       4.39360707       0.98852005       0.63649078        1 
