36
Lattice="0.0 0.0 0.0 0.0 0.0 0.0 0.0 0.0 0.0" Properties=species:S:1:pos:R:3:Z:I:1 pbc="F F F"
C      -1.09098377      -0.64119426      -0.68099943        6 
C       0.34143109      -0.01108847      -0.69167006        6 
C      -2.12043167       0.06184956       0.18698515        6 
C       0.40902935       1.44806606      -0.26251698        6 
O      -3.30453010      -0.58550307       0.09392824        8 
O      -1.95929904       1.04551781       0.86269250        8 
O      -0.29459145       2.18526868      -1.15448604        8 
O       1.04305981       1.92948923       0.63950890        8 
C      -0.43211484       3.58124819      -0.84060361        6 
C      -4.38731378      -0.04248955       0.87331321        6 
C      -0.77700981      -2.03538034      -0.06094191        6 
C       0.04709885      -2.88317763      -1.05189619        6 
C       1.45436298      -2.23949606      -0.89781214        6 
C       1.16081888      -1.08790703       0.09639153        6 
O       0.16987012      -1.68913804       0.95643969        8 
H      -1.51450088      -0.73343363      -1.68178700        1 
H       0.69033604       0.01165626      -1.72613601        1 
H       0.54602738       4.05995932      -0.77512095        1 
H      -4.60052779       0.98255369       0.56642259        1 
H       0.04842300      -3.93005311      -0.74466607        1 
H      -0.34807588      -2.83238438      -2.06871261        1 
H       2.16076366      -2.93533044      -0.44252225        1 
H       1.88578842      -1.88384947      -1.83297516        1 
H      -1.01253814       4.00690205      -1.65671065        1 
H      -0.96004323       3.69568075       0.10741250        1 
H      -4.13701351      -0.05538518       1.93503148        1 
H      -5.23993823      -0.68731992       0.67212024        1 
H      -1.63711014      -2.52961654       0.38297327        1 
C       2.35195260      -0.63643590       0.91278249        6 
O       3.29044222      -0.08405912       0.00191620        8 
H       2.78131974      -1.50644517       1.43111264        1 
H       2.04358628       0.10383371       1.65373688        1 
C       4.27678115       0.70848805       0.63832551        6 
H       4.94639594       1.07319523      -0.14146684        1 
H       4.86015854       0.12040173       1.36119295        1 
H       3.81914475       1.56171078       1.15359520        1 
