36
Lattice="0.0 0.0 0.0 0.0 0.0 0.0 0.0 0.0 0.0" Properties=species:S:1:pos:R:3:Z:I:1 pbc="F F F"
C      -1.43619028      -0.67577879      -0.84695489        6 
C       0.02274573      -0.14048068      -0.85771150        6 
C      -2.50560023       0.09964583      -0.08934940        6 
C       0.17606968       1.36948243      -0.78691971        6 
O      -2.06784446       0.64301778       1.05335137        8 
O      -3.66657349       0.09492633      -0.42934760        8 
O       1.47907653       1.71671591      -0.80721825        8 
O      -0.71984561       2.17651860      -0.77710578        8 
C       1.75835240       3.12789584      -0.80701055        6 
C      -3.04073240       1.37296484       1.81806861        6 
C      -1.20280186      -2.01665416      -0.08648090        6 
C      -0.30260272      -2.96619648      -0.91451088        6 
C       1.11344301      -2.38082758      -0.62723933        6 
C       0.74347460      -1.10753031       0.16852461        6 
O      -0.34064901      -1.59478006       0.97693794        8 
H      -1.82989760      -0.83277046      -1.84986482        1 
H       0.44653140      -0.36619654      -1.84103576        1 
H       1.36381765       3.59570054       0.09670009        1 
H      -3.85472266       0.71706349       2.13139125        1 
H      -0.39399950      -3.99101360      -0.55257159        1 
H      -0.56427426      -2.96081754      -1.97478541        1 
H       1.69753495      -3.04728238       0.00938652        1 
H       1.69823438      -2.16724550      -1.52130585        1 
H       2.84288424       3.20629699      -0.83810568        1 
H       1.31327253       3.60638513      -1.68078364        1 
H      -3.44485828       2.19519991       1.22561294        1 
H      -2.50134459       1.75366454       2.68256905        1 
H      -2.10633847      -2.46250499       0.32394785        1 
C       1.82393099      -0.56319016       1.07949324        6 
O       3.04135944      -0.51485870       0.36014145        8 
H       1.91006259      -1.23900939       1.94248951        1 
H       1.55024075       0.43092665       1.45470080        1 
C       4.05818569       0.18194295       1.04902963        6 
H       4.94488459       0.16779765       0.41487567        1 
H       4.29653274      -0.29646985       2.00985330        1 
H       3.76711066       1.22471736       1.23822111        1 
