36
Lattice="0.0 0.0 0.0 0.0 0.0 0.0 0.0 0.0 0.0" Properties=species:S:1:pos:R:3:Z:I:1 pbc="F F F"
C      -0.98506712       1.28553002       0.53521375        6 
C       0.23687708       0.32053316       0.81232467        6 
C      -2.16903970       0.67240379      -0.20302382        6 
C      -0.10056674      -1.15623870       0.77212819        6 
O      -2.77594575      -0.25780321       0.55931996        8 
O      -2.55179507       0.98514114      -1.30202166        8 
O      -0.04803746      -1.67686748      -0.47273931        8 
O      -0.48681000      -1.77604403       1.73077565        8 
C      -0.44172044      -3.05478794      -0.59249985        6 
C      -3.89138512      -0.94402874      -0.03571845        6 
C      -0.29642573       2.35022911      -0.34766630        6 
C       0.71477404       3.16265949       0.49057307        6 
C       1.90405503       2.16452031       0.58302337        6 
C       1.31806946       0.92929189      -0.14698265        6 
O       0.54177774       1.54097138      -1.18714298        8 
H      -1.36331757       1.68337108       1.47877926        1 
H       0.55173657       0.46880916       1.84444035        1 
H      -1.46664631      -3.18895804      -0.24358555        1 
H      -3.58303333      -1.43971938      -0.95768034        1 
H       0.99725851       4.07595781      -0.03412327        1 
H       0.31206627       3.44607449       1.46558893        1 
H       2.77174856       2.52941699       0.03081257        1 
H       2.21935768       1.94103894       1.60232099        1 
H      -0.36094816      -3.28871225      -1.65187576        1 
H       0.22070944      -3.69246915      -0.00466923        1 
H      -4.69697880      -0.24323455      -0.26027340        1 
H      -4.20990352      -1.67246883       0.70651309        1 
H      -0.98254560       2.92097136      -0.96652505        1 
C       2.33130104      -0.02000179      -0.75295223        6 
O       2.89070426      -0.78029055       0.30693841        8 
H       3.11056536       0.55818357      -1.26941577        1 
H       1.83675614      -0.67093153      -1.47940824        1 
C       3.74570472      -1.81182492      -0.14699457        6 
H       4.10617690      -2.34281744       0.73409786        1 
H       4.60513226      -1.40759123      -0.69973430        1 
H       3.20692599      -2.51374766      -0.79850099        1 
