36
Lattice="0.0 0.0 0.0 0.0 0.0 0.0 0.0 0.0 0.0" Properties=species:S:1:pos:R:3:Z:I:1 pbc="F F F"
C      -1.25535997      -0.84950101      -0.50804542        6 
C       0.11626323      -0.10987422      -0.69104537        6 
C      -2.31026581      -0.07677148       0.26559260        6 
C       0.01558626       1.39402620      -0.46898373        6 
O      -3.43863695       0.04144569      -0.46689227        8 
O      -2.20479575       0.31378810       1.40056714        8 
O       1.17830593       1.97141081      -0.13005838        8 
O      -0.99643561       2.02309919      -0.66805346        8 
C       1.15219220       3.40644267      -0.00205331        6 
C      -4.50692068       0.78251592       0.14861368        6 
C      -0.80204611      -2.08618502       0.31874002        6 
C      -0.01920257      -3.05431395      -0.59071186        6 
C       1.33848408      -2.30588970      -0.71927136        6 
C       1.07897701      -1.03691730       0.14060500        6 
O       0.21540646      -1.54328048       1.16793546        8 
H      -1.68234655      -1.13620648      -1.46716290        1 
H       0.40935679      -0.17278327      -1.74354995        1 
H       0.43821805       3.70555306       0.76615706        1 
H      -4.18116112       1.80301378       0.35471129        1 
H       0.10267801      -4.02042655      -0.09851864        1 
H      -0.51601173      -3.22242933      -1.54825385        1 
H       2.15443048      -2.87919153      -0.27712170        1 
H       1.61647272      -2.06712532      -1.74576743        1 
H       2.16424982       3.68807774       0.28010909        1 
H       0.87563934       3.86677988      -0.95147987        1 
H      -4.81866821       0.30716338       1.08009482        1 
H      -5.31888341       0.77717147      -0.57556649        1 
H      -1.58379702      -2.53234913       0.92946544        1 
C       2.32470203      -0.46529612       0.78237733        6 
O       3.24264431      -0.14875270      -0.24980159        8 
H       2.74327031      -1.23143095       1.45094753        1 
H       2.08407097       0.41886698       1.37901695        1 
C       4.35696522       0.58347785       0.21643967        6 
H       5.00038314       0.77541238      -0.64269400        1 
H       4.92447345       0.01893616       0.97016402        1 
H       4.04581647       1.54114623       0.65580199        1 
