36
Lattice="0.0 0.0 0.0 0.0 0.0 0.0 0.0 0.0 0.0" Properties=species:S:1:pos:R:3:Z:I:1 pbc="F F F"
C      -1.14236731      -1.02789683      -0.45891530        6 
C       0.09090330      -0.08194979      -0.57295337        6 
C      -2.49105953      -0.44315473      -0.09122224        6 
C      -0.04328790       1.21767096       0.19696334        6 
O      -2.65278201       0.78888279      -0.61128479        8 
O      -3.37840186      -1.06722551       0.43683921        8 
O       0.56735521       2.22574292      -0.46397956        8 
O      -0.57650220       1.35566218       1.26953489        8 
C       0.55011476       3.50449299       0.19293959        6 
C      -3.92913582       1.41335205      -0.38223410        6 
C      -0.61961634      -2.16478638       0.46070732        6 
C       0.19183062      -3.14205538      -0.40773209        6 
C       1.41461153      -2.24568400      -0.76842422        6 
C       1.16573667      -0.99749757       0.12622484        6 
O       0.41607845      -1.52752055       1.22518825        8 
H      -1.33786024      -1.44020437      -1.45576596        1 
H       0.36382936       0.14196370      -1.60083971        1 
H       1.07611955       3.45183347       1.14792473        1 
H      -4.09084841       1.55214186       0.68750877        1 
H       0.49658328      -4.00428979       0.18713787        1 
H      -0.35887820      -3.50204590      -1.27878842        1 
H       2.35927304      -2.71733040      -0.49503509        1 
H       1.46982730      -1.98611442      -1.82597548        1 
H       1.05740456       4.18648083      -0.48604886        1 
H      -0.47628661       3.82967954       0.36966766        1 
H      -4.73348098       0.80301078      -0.79546246        1 
H      -3.87598710       2.37426189      -0.88915218        1 
H      -1.36820507      -2.59189121       1.12152526        1 
C       2.41574987      -0.31279449       0.63630523        6 
O       3.14475329       0.14165728      -0.48906072        8 
H       3.00358637      -1.03274246       1.22402954        1 
H       2.15568002       0.52232740       1.30033078        1 
C       4.23420958       0.97426271      -0.14287781        6 
H       4.71544350       1.27778404      -1.07263889        1 
H       4.96479927       0.44344048       0.48348632        1 
H       3.89233567       1.86946813       0.39487511        1 
