36
Lattice="0.0 0.0 0.0 0.0 0.0 0.0 0.0 0.0 0.0" Properties=species:S:1:pos:R:3:Z:I:1 pbc="F F F"
C      -1.05889899      -1.06588303      -0.38298339        6 
C       0.18939247      -0.13483209      -0.67104838        6 
C      -2.28283618      -0.33082370       0.12297065        6 
C      -0.14275607       1.32700464      -0.39202554        6 
O      -3.23018777      -0.26933119      -0.83107635        8 
O      -2.42103972       0.10854287       1.23900277        8 
O       0.53007019       1.88607806       0.61973022        8 
O      -0.99190086       1.91137398      -1.02554443        8 
C       0.14125939       3.22835137       0.97110237        6 
C      -4.40890543       0.48975839      -0.50365122        6 
C      -0.46181199      -2.04500796       0.66952777        6 
C       0.35929994      -3.10614645      -0.08190195        6 
C       1.55691566      -2.23988356      -0.56296046        6 
C       1.28103688      -0.87968367       0.15343073        6 
O       0.55302065      -1.27534160       1.32628043        8 
H      -1.34414173      -1.59056722      -1.29324205        1 
H       0.42071793      -0.16237962      -1.73585782        1 
H      -0.90522176       3.24253954       1.27719403        1 
H      -4.14213494       1.53452291      -0.33813058        1 
H       0.68427099      -3.88625983       0.60869394        1 
H      -0.19605190      -3.57765651      -0.89513925        1 
H       2.51087293      -2.64924640      -0.22849199        1 
H       1.60713182      -2.12861580      -1.64670136        1 
H       0.78738366       3.50556337       1.80108037        1 
H       0.28493940       3.90229735       0.12573935        1 
H      -4.88824749       0.08818547       0.39022412        1 
H      -5.06299593       0.39542264      -1.36751868        1 
H      -1.17389735      -2.40958820       1.40585302        1 
C       2.53963343      -0.12989276       0.54200155        6 
O       3.09721988       0.39643949      -0.65304429        8 
H       3.24034591      -0.83004322       1.01945618        1 
H       2.30729812       0.66807426       1.24936323        1 
C       4.25415570       1.17660559      -0.42258668        6 
H       4.59794113       1.53845415      -1.39194141        1 
H       5.05320251       0.58205848       0.04222551        1 
H       4.03260104       2.03575413       0.22549735        1 
