36
Lattice="0.0 0.0 0.0 0.0 0.0 0.0 0.0 0.0 0.0" Properties=species:S:1:pos:R:3:Z:I:1 pbc="F F F"
C      -1.12792355      -0.67655364      -0.42318093        6 
C       0.26637862      -0.03783178      -0.70743144        6 
C      -2.34243707       0.21900859      -0.28847464        6 
C       0.45217625       1.44109743      -0.39065318        6 
O      -3.45056941      -0.52193710      -0.54746374        8 
O      -2.39484911       1.37854388       0.03122940        8 
O       0.20151599       1.74779187       0.88824877        8 
O       0.88967841       2.23007799      -1.19641341        8 
C       0.26598812       3.14112472       1.22898194        6 
C      -4.71324229       0.15468271      -0.40247332        6 
C      -0.82646713      -1.60163793       0.81132305        6 
C      -0.25985492      -2.91958737       0.25634166        6 
C       1.10160089      -2.41094812      -0.30560102        6 
C       1.14259706      -0.94673918       0.22742448        6 
O       0.32936110      -1.01360906       1.40899642        8 
H      -1.37291195      -1.32741269      -1.26404588        1 
H       0.54889658      -0.14997772      -1.75118405        1 
H      -0.49179091       3.69286046       0.67056741        1 
H      -4.77250492       1.00201399      -1.08707146        1 
H      -0.11098670      -3.63175394       1.06979303        1 
H      -0.90210051      -3.38185642      -0.49501194        1 
H       1.94243571      -2.97759065       0.09598304        1 
H       1.16629861      -2.45217989      -1.39325088        1 
H       0.05939404       3.18616064       2.29598911        1 
H       1.25309525       3.54996112       1.00723276        1 
H      -4.84213183       0.51069762       0.62094628        1 
H      -5.46899211      -0.58851796      -0.64726280        1 
H      -1.62658456      -1.68104427       1.54349835        1 
C       2.52692121      -0.43519834       0.56635568        6 
O       3.27948879      -0.43814873      -0.63334286        8 
H       2.98175580      -1.09449306       1.32012619        1 
H       2.46845842       0.57345218       0.99256572        1 
C       4.51514391       0.24261908      -0.51737554        6 
H       5.00573293       0.18286517      -1.48881951        1 
H       5.16083025      -0.22219669       0.24098615        1 
H       4.36118650       1.29830307      -0.25739982        1 
