36
Lattice="0.0 0.0 0.0 0.0 0.0 0.0 0.0 0.0 0.0" Properties=species:S:1:pos:R:3:Z:I:1 pbc="F F F"
C      -1.08912900      -0.80504927      -0.84554779        6 
C       0.30320483      -0.05950186      -0.75944918        6 
C      -2.22684417      -0.02743091      -0.19863229        6 
C       0.20004848       1.35210586      -0.21560841        6 
O      -2.76383128      -0.65185163       0.85930807        8 
O      -2.62050034       1.03618499      -0.61732135        8 
O       0.18931481       2.23894410      -1.22554951        8 
O       0.14007669       1.66172355       0.95088100        8 
C      -0.04164355       3.61030482      -0.85748448        6 
C      -3.81500602       0.05490224       1.54548164        6 
C      -0.73216880      -2.14815229      -0.16923599        6 
C       0.21399190      -2.95704808      -1.08453292        6 
C       1.56386686      -2.21704106      -0.85703145        6 
C       1.12634538      -1.07923024       0.09792457        6 
O       0.12704880      -1.72831702       0.90064155        8 
H      -1.37711348      -0.92553323      -1.89177376        1 
H       0.72924776       0.02383399      -1.75665991        1 
H       0.72315445       3.95417399      -0.15958164        1 
H      -4.67168788       0.19961179       0.88535653        1 
H       0.26612693      -3.99509611      -0.75332896        1 
H      -0.11146400      -2.95418562      -2.12737312        1 
H       2.28780154      -2.85686295      -0.34912495        1 
H       2.02478140      -1.84490813      -1.77192298        1 
H       0.00697324       4.17124638      -1.78815588        1 
H      -1.02737877       3.70968925      -0.40101291        1 
H      -3.45208894       1.02434069       1.88820796        1 
H      -4.08150030      -0.57665143       2.38976441        1 
H      -1.58025722      -2.69218965       0.23494956        1 
C       2.20843442      -0.50641470       0.98707185        6 
O       3.07325035       0.25435566       0.15603891        8 
H       2.75577043      -1.32643973       1.47313476        1 
H       1.75574804       0.12323625       1.75847002        1 
C       4.01967930       1.00685746       0.89211637        6 
H       4.61778108       1.56517187       0.17155735        1 
H       4.68224055       0.35533825       1.47890997        1 
H       3.51989066       1.70898165       1.57223412        1 
