36
Lattice="0.0 0.0 0.0 0.0 0.0 0.0 0.0 0.0 0.0" Properties=species:S:1:pos:R:3:Z:I:1 pbc="F F F"
C      -1.17574421      -0.76099626      -0.55644688        6 
C       0.26052399      -0.16608311      -0.77877046        6 
C      -2.24086158       0.17726503      -0.02983242        6 
C       0.29569349       1.35334851      -0.67766150        6 
O      -3.46311438      -0.31191755      -0.34532695        8 
O      -2.07909760       1.17893701       0.61944285        8 
O       0.76917079       1.83031369       0.47952667        8 
O      -0.08154772       2.05191193      -1.58898952        8 
C       0.65023849       3.25219514       0.66324398        6 
C      -4.58952618       0.43808143       0.14736409        6 
C      -0.87715069      -1.87213643       0.50399739        6 
C      -0.19217390      -3.05753957      -0.20130826        6 
C       1.22052620      -2.46174852      -0.45729891        6 
C       1.09773656      -1.05553065       0.19708909        6 
O       0.17849967      -1.29884788       1.27857256        8 
H      -1.56355102      -1.20702002      -1.47110557        1 
H       0.56195986      -0.36077934      -1.80698726        1 
H      -0.40322584       3.53378841       0.64754109        1 
H      -4.57814570       1.45014814      -0.25979973        1 
H      -0.14866699      -3.91863741       0.46761257        1 
H      -0.71296154      -3.36033492      -1.11137591        1 
H       1.99519589      -3.03605463       0.05331059        1 
H       1.48816870      -2.40412080      -1.51215785        1 
H       1.08698712       3.45515587       1.63878479        1 
H       1.18628831       3.78863759      -0.12087193        1 
H      -4.56801608       0.48835481       1.23715451        1 
H      -5.46903893      -0.10261920      -0.19507019        1 
H      -1.71666387      -2.12077562       1.14994844        1 
C       2.40293862      -0.50278235       0.73233729        6 
O       3.17382775      -0.10359431      -0.39042111        8 
H       2.92268570      -1.28830397       1.29987077        1 
H       2.21198659       0.34339009       1.39549772        1 
C       4.37313447       0.55390487      -0.02972739        6 
H       4.87909630       0.83089693      -0.95485051        1 
H       5.03112330      -0.10306861       0.55661764        1 
H       4.16785089       1.46088543       0.55536777        1 
