36
Lattice="0.0 0.0 0.0 0.0 0.0 0.0 0.0 0.0 0.0" Properties=species:S:1:pos:R:3:Z:I:1 pbc="F F F"
C      -0.88791947       1.02775736       0.44611097        6 
C       0.30906363       0.00567253       0.57845339        6 
C      -2.14951121       0.46498633      -0.17013411        6 
C       0.02092771      -1.33002738      -0.08605619        6 
O      -3.16319688       0.48165136       0.72720417        8 
O      -2.27262713       0.06523206      -1.30036709        8 
O      -0.75670236      -2.07366421       0.74089890        8 
O       0.34718434      -1.69571150      -1.18343194        8 
C      -1.23463678      -3.31696199       0.19539990        6 
C      -4.41724520      -0.05429396       0.26675207        6 
C      -0.22536790       2.15117123      -0.41236215        6 
C       0.63029978       3.01935792       0.52870628        6 
C       1.78480755       2.02579135       0.85138919        6 
C       1.45004047       0.83087597      -0.08781393        6 
O       0.76333438       1.46275891      -1.17920639        8 
H      -1.15390299       1.40281034       1.43291554        1 
H       0.51358117      -0.19431466       1.62868714        1 
H      -0.39943553      -3.98019199      -0.03493024        1 
H      -4.30509049      -1.10753480       0.00362611        1 
H       0.99879206       3.89463300      -0.00851956        1 
H       0.08646009       3.36168840       1.41101043        1 
H       2.75915698       2.44194727       0.59225835        1 
H       1.81909875       1.72648963       1.89954261        1 
H      -1.86343127      -3.75129893       0.96992098        1 
H      -1.80909854      -3.13171611      -0.71373442        1 
H      -4.77303377       0.49633375      -0.60522718        1 
H      -5.10563398       0.05946801       1.10125148        1 
H      -0.90507996       2.67652501      -1.07939756        1 
C       2.64602873       0.05708615      -0.60531807        6 
O       3.13169652      -0.73409072       0.47044027        8 
H       3.41771073       0.76165094      -0.94766849        1 
H       2.34234905      -0.57219792      -1.44537630        1 
C       4.17626937      -1.60554776       0.08001564        6 
H       4.46691530      -2.17594113       0.96267524        1 
H       5.04823431      -1.04657136      -0.28777571        1 
H       3.84319481      -2.29765706      -0.70500341        1 
