36
Lattice="0.0 0.0 0.0 0.0 0.0 0.0 0.0 0.0 0.0" Properties=species:S:1:pos:R:3:Z:I:1 pbc="F F F"
C      -0.98980308       1.19683043       0.60696596        6 
C       0.20058154       0.16717624       0.68783769        6 
C      -2.23100829       0.73989922      -0.14510836        6 
C      -0.09607086      -1.19894422       0.10695810        6 
O      -2.67985833      -0.43393801       0.34531622        8 
O      -2.79291806       1.36057151      -1.01070857        8 
O      -0.18979186      -2.12342976       1.08314814        8 
O      -0.21131337      -1.45888865      -1.06727165        8 
C      -0.48188201      -3.46136282       0.64843851        6 
C      -3.80869129      -1.01885393      -0.33089538        6 
C      -0.30606392       2.39560152      -0.08239490        6 
C       0.68377448       3.06545276       0.89410552        6 
C       1.85664874       2.04054195       0.88469799        6 
C       1.31071203       0.96306253      -0.08751321        6 
O       0.55995608       1.74593712      -1.02418628        8 
H      -1.32739184       1.44201108       1.61782250        1 
H       0.49350799       0.01559870       1.72359849        1 
H       0.31995070      -3.83989055       0.01201845        1 
H      -3.53363362      -1.27471173      -1.35524309        1 
H       0.99966937       4.03476648       0.50637327        1 
H       0.25355127       3.22318846       1.88557841        1 
H       2.76550707       2.48140535       0.47110968        1 
H       2.09608060       1.63614197       1.86835171        1 
H      -0.55880279      -4.05338702       1.55783192        1 
H      -1.42070083      -3.48518435       0.09256093        1 
H      -4.65199969      -0.32762208      -0.34045554        1 
H      -4.05244162      -1.91502237       0.23571015        1 
H      -0.99180105       3.05316930      -0.60828039        1 
C       2.34270626       0.13745860      -0.82635504        6 
O       2.88823384      -0.78680321       0.10337554        8 
H       3.12528095       0.79680486      -1.22718615        1 
H       1.86084661      -0.38455343      -1.65914744        1 
C       3.76822714      -1.71850949      -0.49734972        6 
H       4.11297127      -2.38948742       0.28986115        1 
H       4.63708169      -1.21806223      -0.94710155        1 
H       3.25584162      -2.30216402      -1.27397809        1 
