36
Lattice="0.0 0.0 0.0 0.0 0.0 0.0 0.0 0.0 0.0" Properties=species:S:1:pos:R:3:Z:I:1 pbc="F F F"
C      -1.12357511      -0.97572690      -0.78128164        6 
C       0.27046273      -0.22869738      -0.86642457        6 
C      -2.27651863      -0.13226284      -0.23501988        6 
C       0.15945377       1.28423355      -0.96570436        6 
O      -2.70195252      -0.54967297       0.97420504        8 
O      -2.78175634       0.78834601      -0.82710164        8 
O       0.46914081       1.94280277       0.17030297        8 
O      -0.28981287       1.83033249      -1.94017588        8 
C       0.26047690       3.36780247       0.13657605        6 
C      -3.78968255       0.19291922       1.55262066        6 
C      -0.72804849      -2.14602717       0.14729492        6 
C       0.26545116      -3.08996024      -0.56757776        6 
C       1.59522719      -2.29560898      -0.43208430        6 
C       1.09515725      -0.98677162       0.23063764        6 
O       0.08894393      -1.48267684       1.12785727        8 
H      -1.43354843      -1.29653730      -1.77651481        1 
H       0.69370202      -0.48382178      -1.83908919        1 
H      -0.78110629       3.59161791      -0.09659496        1 
H      -4.67759963       0.12598029       0.92176017        1 
H       0.31783753      -4.04994776      -0.05261075        1 
H      -0.02024570      -3.28171857      -1.60435606        1 
H       2.28690908      -2.79792881       0.24653896        1 
H       2.11111466      -2.12260571      -1.37632909        1 
H       0.52002829       3.72092992       1.13251938        1 
H       0.90336826       3.82890663      -0.61470338        1 
H      -3.51366058       1.24152161       1.67191329        1 
H      -3.96990101      -0.26824630       2.52111453        1 
H      -1.56340108      -2.63086284       0.64179171        1 
C       2.14676384      -0.21953287       1.00308352        6 
O       3.05501953       0.31813834       0.05438927        8 
H       2.66347680      -0.90637190       1.68849443        1 
H       1.67688308       0.57493004       1.58799809        1 
C       3.95206756       1.25510390       0.61806934        6 
H       4.60803951       1.59565096      -0.18349187        1 
H       4.56129373       0.80116096       1.41200588        1 
H       3.41240050       2.11679322       1.03430409        1 
