36
Lattice="0.0 0.0 0.0 0.0 0.0 0.0 0.0 0.0 0.0" Properties=species:S:1:pos:R:3:Z:I:1 pbc="F F F"
C      -0.90705344       1.12299788       0.43272513        6 
C       0.23072816       0.07371979       0.67288240        6 
C      -2.29646430       0.60146570       0.12494455        6 
C       0.00829967      -1.34070462       0.16409373        6 
O      -2.73606942      -0.17805323       1.13862215        8 
O      -2.96408283       0.88665766      -0.83628394        8 
O      -0.97647170      -1.42491852      -0.74483911        8 
O       0.71017123      -2.27715075       0.46695924        8 
C      -1.19510625      -2.70909632      -1.35285160        6 
C      -4.02778979      -0.78128191       0.95201177        6 
C      -0.30081542       2.02394852      -0.67484968        6 
C       0.62525015       3.04720629      -0.00025499        6 
C       1.75703316       2.10633913       0.50355559        6 
C       1.37510563       0.75642871      -0.17291185        6 
O       0.64483687       1.16366973      -1.33772560        8 
H      -1.03141186       1.69847728       1.35528473        1 
H       0.51650363      -0.01208246       1.71909268        1 
H      -1.43681450      -3.45368975      -0.59281539        1 
H      -4.01757041      -1.42446771       0.07010288        1 
H       0.99916336       3.75886555      -0.73822999        1 
H       0.13426877       3.60802274       0.79808025        1 
H       2.73984978       2.43039243       0.15943160        1 
H       1.80341980       2.01643207       1.58911049        1 
H      -2.02948136      -2.56386619      -2.03513999        1 
H      -0.30506776      -3.02651184      -1.89808922        1 
H      -4.79592141      -0.01655024       0.82836884        1 
H      -4.20937910      -1.36690145       1.85056562        1 
H      -1.02336454       2.40024680      -1.39293364        1 
C       2.56381110      -0.09637035      -0.56423156        6 
O       3.29286354      -0.37251079       0.61682867        8 
H       3.17791063       0.46522140      -1.28350848        1 
H       2.23949227      -1.02361681      -1.04873084        1 
C       4.20560626      -1.44557182       0.46929077        6 
H       4.71752400      -1.56282491       1.42459707        1 
H       4.94945773      -1.23426614      -0.31197480        1 
H       3.67694631      -2.37544556       0.22556468        1 
