36
Lattice="0.0 0.0 0.0 0.0 0.0 0.0 0.0 0.0 0.0" Properties=species:S:1:pos:R:3:Z:I:1 pbc="F F F"
C      -0.82417647       1.08386477       0.73184589        6 
C       0.33650312       0.00929046       0.69265388        6 
C      -2.21824928       0.60714285       0.37787907        6 
C      -0.05112281      -1.37136742       0.17415361        6 
O      -2.35170478       0.39578074      -0.94792062        8 
O      -3.10190493       0.42192171       1.17736954        8 
O      -1.17676204      -1.79015219       0.78852461        8 
O       0.56985751      -2.06915327      -0.58720553        8 
C      -1.65496164      -3.09918750       0.43507821        6 
C      -3.61689769      -0.13319239      -1.38037753        6 
C      -0.24652908       2.17682427      -0.21989013        6 
C       0.77087589       3.01283369       0.57307869        6 
C       1.91285678       1.97354439       0.74273343        6 
C       1.40591788       0.78741164      -0.13422526        6 
O       0.58966966       1.44102593      -1.12115064        8 
H      -0.91896757       1.46860026       1.74679362        1 
H       0.69138893      -0.17345351       1.70909221        1 
H      -0.94019603      -3.86241933       0.74708738        1 
H      -4.42656496       0.55544146      -1.13417315        1 
H       1.09528232       3.86682080      -0.02357070        1 
H       0.37174145       3.38643318       1.51801906        1 
H       2.85947669       2.34771753       0.35100063        1 
H       2.08200311       1.67374781       1.77742552        1 
H      -2.59640187      -3.21329619       0.96778526        1 
H      -1.80721302      -3.17029951      -0.64302792        1 
H      -3.80719545      -1.09466652      -0.90040527        1 
H      -3.52792324      -0.25248433      -2.45791676        1 
H      -0.99279561       2.72928291      -0.78550107        1 
C       2.51596645       0.00640466      -0.80823618        6 
O       3.21667230      -0.68408761       0.21446765        8 
H       3.18184186       0.71309690      -1.32484601        1 
H       2.10278388      -0.69004508      -1.53880892        1 
C       4.08246514      -1.68445477      -0.28932253        6 
H       4.55137072      -2.16528634       0.56990527        1 
H       4.86701712      -1.25318100      -0.92751554        1 
H       3.52260123      -2.43261998      -0.86421178        1 
