36
Lattice="0.0 0.0 0.0 0.0 0.0 0.0 0.0 0.0 0.0" Properties=species:S:1:pos:R:3:Z:I:1 pbc="F F F"
C      -0.97109619       1.27561426       0.54395548        6 
C       0.24048318       0.29968312       0.81734953        6 
C      -2.19613105       0.68139546      -0.13896036        6 
C      -0.08292885      -1.17767163       0.72401745        6 
O      -2.69928552      -0.34067254       0.57938493        8 
O      -2.70022111       1.09466742      -1.15275467        8 
O      -0.16732172      -1.60667886      -0.55419485        8 
O      -0.31921994      -1.87804547       1.67544595        8 
C      -0.56015923      -2.97789267      -0.73207168        6 
C      -3.85907101      -0.99671957       0.03692048        6 
C      -0.29302007       2.32445616      -0.36565606        6 
C       0.72358335       3.15282878       0.44846825        6 
C       1.90647963       2.14994083       0.56663255        6 
C       1.32097527       0.90599809      -0.14861539        6 
O       0.54072589       1.50086619      -1.19549222        8 
H      -1.32036801       1.69922561       1.48880695        1 
H       0.56354633       0.42430764       1.84918706        1 
H      -1.51753477      -3.16481108      -0.24367278        1 
H      -3.65033938      -1.36761640      -0.96778197        1 
H       1.01172492       4.04833621      -0.10317671        1 
H       0.32419849       3.46670808       1.41534326        1 
H       2.78143507       2.50209431       0.01763328        1 
H       2.21131029       1.94015158       1.59191436        1 
H      -0.64113005      -3.11940454      -1.80776089        1 
H       0.19103238      -3.64868143      -0.31133876        1 
H      -4.70388921      -0.30743819      -0.00435187        1 
H      -4.06784229      -1.81927107       0.71737198        1 
H      -0.98750781       2.88093614      -0.98781852        1 
C       2.33479696      -0.04914340      -0.74512214        6 
O       2.89958928      -0.79062789       0.32439942        8 
H       3.10911018       0.52340785      -1.27511639        1 
H       1.83916227      -0.71282234      -1.46011434        1 
C       3.78687132      -1.80300192      -0.11037177        6 
H       4.14880203      -2.31740083       0.77982630        1 
H       4.64264823      -1.38042078      -0.65498292        1 
H       3.27656244      -2.52527030      -0.76276419        1 
