36
Lattice="0.0 0.0 0.0 0.0 0.0 0.0 0.0 0.0 0.0" Properties=species:S:1:pos:R:3:Z:I:1 pbc="F F F"
C      -1.48007235      -0.46596521      -0.90390225        6 
C       0.03370478      -0.10250797      -0.86027552        6 
C      -2.53391035       0.28382896      -0.09846733        6 
C       0.48593704       1.33776457      -0.68195040        6 
O      -2.08285313       0.83561513       1.02507413        8 
O      -3.70645078       0.23399372      -0.40304189        8 
O       1.64129026       1.50429144      -1.37134436        8 
O      -0.04044149       2.23454332      -0.07492492        8 
C       2.26678850       2.79119126      -1.25604959        6 
C      -3.05787716       1.48484510       1.85704455        6 
C      -1.39156995      -1.88899950      -0.26435437        6 
C      -0.50644462      -2.83885983      -1.11356769        6 
C       0.92749991      -2.42708469      -0.65663071        6 
C       0.59463975      -1.17433608       0.17790573        6 
O      -0.57644605      -1.61557707       0.87991490        8 
H      -1.85269546      -0.50364908      -1.92735285        1 
H       0.44331418      -0.37360355      -1.83249384        1 
H       2.50814827       3.00744101      -0.21362342        1 
H      -3.79458508       0.76426511       2.21701349        1 
H      -0.72325568      -3.87999676      -0.87254424        1 
H      -0.67030222      -2.70348412      -2.18481818        1 
H       1.37255085      -3.18793708      -0.01265276        1 
H       1.61528452      -2.21973673      -1.47570090        1 
H       3.17514500       2.72557368      -1.85107989        1 
H       1.61152888       3.57498100      -1.64005974        1 
H      -3.56676950       2.27379631       1.30138048        1 
H      -2.49244193       1.90520221       2.68525940        1 
H      -2.35070399      -2.29532957       0.04838003        1 
C       1.61598395      -0.71799575       1.19744896        6 
O       2.85714990      -0.52837320       0.54530536        8 
H       1.69581371      -1.48938835       1.97697472        1 
H       1.27381986       0.21090320       1.67461711        1 
C       3.83032945       0.07340871       1.37519015        6 
H       4.74032393       0.17232140       0.78305779        1 
H       4.04355571      -0.54131380       2.26116773        1 
H       3.50791972       1.06952638       1.71016490        1 
