36
Lattice="0.0 0.0 0.0 0.0 0.0 0.0 0.0 0.0 0.0" Properties=species:S:1:pos:R:3:Z:I:1 pbc="F F F"
C      -1.13451523      -0.60976411      -0.76496519        6 
C       0.27593377       0.02797844      -0.75824320        6 
C      -2.06481357      -0.09297403       0.32727904        6 
C       0.40414073       1.52886265      -0.56412684        6 
O      -3.26486621      -0.71316148       0.22448423        8 
O      -1.82001947       0.73513303       1.16463115        8 
O      -0.74215842       2.15954739      -0.88951826        8 
O       1.44775844       2.11448432      -0.40226441        8 
C      -0.70322383       3.59587738      -0.87044297        6 
C      -4.25113433      -0.34718214       1.20681254        6 
C      -0.73949132      -2.05103204      -0.31497206        6 
C       0.23355101      -2.71751345      -1.31670807        6 
C       1.59454846      -2.08075798      -0.90461529        6 
C       1.11315140      -1.00287304       0.09077680        6 
O       0.09875090      -1.73728892       0.80937892        8 
H      -1.64087931      -0.57283120      -1.72878665        1 
H       0.64831717      -0.04871009      -1.78692660        1 
H       0.04823807       3.97028417      -1.56755125        1 
H      -4.48193274       0.71705348       1.13711761        1 
H       0.23680349      -3.80016393      -1.18493634        1 
H      -0.04223270      -2.50978366      -2.35350628        1 
H       2.22843039      -2.79958644      -0.38327456        1 
H       2.16238321      -1.66384525      -1.73549917        1 
H      -1.69947690       3.91572459      -1.16812250        1 
H      -0.47421708       3.95207051       0.13495021        1 
H      -3.88977955      -0.57092678       2.21163831        1 
H      -5.12948873      -0.94494033       0.97268171        1 
H      -1.57717619      -2.66300607       0.00853575        1 
C       2.15173946      -0.47859271       1.05915998        6 
O       3.32921799      -0.19533478       0.32463823        8 
H       2.34228193      -1.25521962       1.81346821        1 
H       1.78066581       0.41539593       1.57073336        1 
C       4.17810593       0.73853797       0.96642795        6 
H       5.04830262       0.87187214       0.32294916        1 
H       4.51387724       0.37127440       1.94711499        1 
H       3.66972843       1.70159374       1.09044545        1 
