36
Lattice="0.0 0.0 0.0 0.0 0.0 0.0 0.0 0.0 0.0" Properties=species:S:1:pos:R:3:Z:I:1 pbc="F F F"
C      -1.13107046      -0.59972615      -0.80636185        6 
C       0.32831484      -0.01024059      -0.72422348        6 
C      -2.16672694       0.14955385       0.03254518        6 
C       0.41373188       1.43486982      -0.26145005        6 
O      -3.01611433      -0.68698919       0.65764639        8 
O      -2.27777760       1.35022446       0.08110130        8 
O       0.08984525       2.24128158      -1.29259355        8 
O       0.79700697       1.84027594       0.80748208        8 
C      -0.01683665       3.64121105      -0.98615590        6 
C      -4.05293193      -0.06588546       1.44166434        6 
C      -0.86802512      -2.03162850      -0.28463572        6 
C       0.03083223      -2.81085418      -1.27053116        6 
C       1.43366817      -2.23430616      -0.93096499        6 
C       1.06530237      -1.12928664       0.08605977        6 
O       0.00322506      -1.76065980       0.82798338        8 
H      -1.50239018      -0.57934943      -1.83414363        1 
H       0.73020616       0.01795086      -1.73765429        1 
H       0.92887982       4.02378539      -0.59946159        1 
H      -4.70269594       0.53675035       0.80512914        1 
H      -0.02395042      -3.88205503      -1.07265151        1 
H      -0.26208730      -2.64747285      -2.31044069        1 
H       2.05969506      -2.98045842      -0.43834594        1 
H       1.97957910      -1.84995941      -1.79202671        1 
H      -0.27065532       4.12552524      -1.92677013        1 
H      -0.80711328       3.79545049      -0.25028026        1 
H      -3.61394983       0.56767060       2.21297623        1 
H      -4.60690744      -0.88823282       1.88870178        1 
H      -1.75160136      -2.55549081       0.06284515        1 
C       2.18136151      -0.71853716       1.02129774        6 
O       3.18871789      -0.11522982       0.22215463        8 
H       2.57084419      -1.61299274       1.52874810        1 
H       1.80759314      -0.01667965       1.77011923        1 
C       4.13893093       0.60628833       0.98493460        6 
H       4.85766474       1.03072331       0.28306506        1 
H       4.67217103      -0.05000165       1.68728995        1 
H       3.65652276       1.41597484       1.54665101        1 
