36
Lattice="0.0 0.0 0.0 0.0 0.0 0.0 0.0 0.0 0.0" Properties=species:S:1:pos:R:3:Z:I:1 pbc="F F F"
C      -0.94284247       1.16125625       0.63943818        6 
C       0.24369261       0.11958857       0.68457001        6 
C      -2.17053304       0.81834648      -0.20193238        6 
C      -0.09632898      -1.28414688       0.22299032        6 
O      -2.62372724      -0.42468913       0.04435278        8 
O      -2.72096950       1.58477208      -0.95239001        8 
O      -0.56684162      -2.00234200       1.26481076        8 
O       0.09001766      -1.75521875      -0.87223319        8 
C      -0.97772735      -3.34453657       0.96355243        6 
C      -3.77967653      -0.84164643      -0.70798496        6 
C      -0.21713083       2.38107297       0.02892841        6 
C       0.81189562       2.94947980       1.02821711        6 
C       1.96828901       1.91572025       0.89541097        6 
C       1.35232869       0.89905643      -0.09935394        6 
O       0.60134833       1.75438009      -0.97389603        8 
H      -1.31296151       1.35223260       1.65030418        1 
H       0.54913830       0.00206359       1.72324785        1 
H      -0.13794944      -3.92842099       0.58348241        1 
H      -3.55661498      -0.83375533      -1.77546770        1 
H       1.12954033       3.94678623       0.72169418        1 
H       0.40984039       3.02093331       2.04136998        1 
H       2.85409578       2.36925343       0.44696133        1 
H       2.26481493       1.45700064       1.83854879        1 
H      -1.33729243      -3.75800228       1.90340108        1 
H      -1.77493286      -3.33802403       0.21788984        1 
H      -4.62383326      -0.18059774      -0.50807424        1 
H      -3.99530158      -1.85233719      -0.36864250        1 
H      -0.88449222       3.09679347      -0.44065607        1 
C       2.35279782       0.08917547      -0.89564318        6 
O       2.99030397      -0.79473486       0.01605828        8 
H       3.08534217       0.77003038      -1.35227001        1 
H       1.84160460      -0.46704347      -1.68520109        1 
C       3.78837750      -1.76875375      -0.63017834        6 
H       4.23743231      -2.38527343       0.14919292        1 
H       4.58880685      -1.30307975      -1.22216811        1 
H       3.18026852      -2.40200626      -1.28919478        1 
