36
Lattice="0.0 0.0 0.0 0.0 0.0 0.0 0.0 0.0 0.0" Properties=species:S:1:pos:R:3:Z:I:1 pbc="F F F"
C      -1.39407543      -0.41145361      -0.72257132        6 
C       0.09644214       0.01340568      -0.76975380        6 
C      -2.30672405       0.27587823       0.28311164        6 
C       0.43923430       1.47662123      -0.54708517        6 
O      -3.58240786       0.23835445      -0.19020917        8 
O      -2.01229175       0.73205278       1.35230332        8 
O       1.69340837       1.70732924      -1.00511781        8 
O      -0.24785055       2.33873307      -0.06541486        8 
C       2.18964709       3.04465332      -0.83251657        6 
C      -4.58795170       0.77386416       0.68808466        6 
C      -1.20512430      -1.86617962      -0.18243022        6 
C      -0.37532138      -2.72987110      -1.16652864        6 
C       1.07891091      -2.28381585      -0.82417995        6 
C       0.79063675      -1.10097664       0.12507746        6 
O      -0.29761694      -1.63137712       0.89796080        8 
H      -1.86664134      -0.38879455      -1.70338954        1 
H       0.44004408      -0.16084770      -1.79142309        1 
H       2.17673144       3.32481622       0.22224542        1 
H      -4.39880912       1.83061446       0.88322908        1 
H      -0.52784586      -3.79102701      -0.96638662        1 
H      -0.64904390      -2.54392472      -2.20768024        1 
H       1.61544534      -3.06309845      -0.28046370        1 
H       1.67568091      -1.99802360      -1.68940492        1 
H       3.20897159       3.02589659      -1.21230334        1 
H       1.58285034       3.75577012      -1.39595007        1 
H      -4.59709069       0.23195632       1.63539893        1 
H      -5.53217411       0.64410488       0.16303933        1 
H      -2.11613314      -2.32767524       0.19300457        1 
C       1.90225898      -0.69002730       1.06772900        6 
O       3.10808903      -0.59148594       0.33398261        8 
H       1.98458561      -1.45465308       1.85313053        1 
H       1.65336763       0.26301773       1.55432560        1 
C       4.14279099       0.04242845       1.05715755        6 
H       5.01923400       0.06745169       0.40925062        1 
H       4.39062096      -0.50748954       1.97616976        1 
H       3.86570494       1.07105404       1.32753299        1 
