36
Lattice="0.0 0.0 0.0 0.0 0.0 0.0 0.0 0.0 0.0" Properties=species:S:1:pos:R:3:Z:I:1 pbc="F F F"
C      -1.01538045       1.28313555       0.58894266        6 
C       0.22389234       0.33165589       0.82143566        6 
C      -2.19774072       0.71423647      -0.19547413        6 
C      -0.09085512      -1.15213449       0.85217985        6 
O      -2.68906372      -0.39364825       0.38597954        8 
O      -2.67503874       1.21065616      -1.18547154        8 
O       0.09219485      -1.77104931      -0.33326524        8 
O      -0.57266734      -1.69858417       1.81218338        8 
C      -0.29410667      -3.15539303      -0.38259035        6 
C      -3.79968397      -1.02844420      -0.27166525        6 
C      -0.33945362       2.39315754      -0.24687385        6 
C       0.69806559       3.16043829       0.60142320        6 
C       1.89483371       2.16663748       0.59580208        6 
C       1.27788297       0.96089774      -0.15623148        6 
O       0.47082215       1.61743117      -1.14673829        8 
H      -1.40617369       1.63254537       1.54705313        1 
H       0.56202842       0.50740177       1.84327944        1 
H      -1.34877181      -3.26343952      -0.12542737        1 
H      -3.52147775      -1.32230838      -1.28518551        1 
H       0.95847475       4.10420852       0.12105019        1 
H       0.32825220       3.38643091       1.60417182        1 
H       2.73302876       2.55909147       0.01741775        1 
H       2.25968510       1.90159464       1.58799207        1 
H      -0.11264248      -3.47103733      -1.40798671        1 
H       0.30591696      -3.74478157       0.31266659        1 
H      -4.65626514      -0.35425991      -0.31565154        1 
H      -4.02934140      -1.90185844       0.33480602        1 
H      -1.03734370       2.99692723      -0.81853207        1 
C       2.27184119       0.03498180      -0.82338724        6 
O       2.92518965      -0.69241449       0.20591348        8 
H       2.99609910       0.62898085      -1.39869497        1 
H       1.75113550      -0.64124872      -1.50654483        1 
C       3.72231353      -1.75020065      -0.29007533        6 
H       4.16789634      -2.24992631       0.57035435        1 
H       4.52422729      -1.37887782      -0.94341920        1 
H       3.11363778      -2.47084808      -0.85351328        1 
