36
Lattice="0.0 0.0 0.0 0.0 0.0 0.0 0.0 0.0 0.0" Properties=species:S:1:pos:R:3:Z:I:1 pbc="F F F"
C      -1.00103885      -1.04222574      -0.73314429        6 
C       0.26252591      -0.10974669      -0.73564046        6 
C      -2.23731824      -0.65886587       0.07077813        6 
C       0.01201208       1.35387521      -0.41198807        6 
O      -2.14837022       0.52012073       0.69782527        8 
O      -3.19084514      -1.39527887       0.16780842        8 
O      -0.73014322       1.88793621      -1.41264488        8 
O       0.42288666       1.99823719       0.51785810        8 
C      -1.12777326       3.25695319      -1.23956929        6 
C      -3.24976765       0.88515573       1.55065194        6 
C      -0.40132891      -2.30812080      -0.05571459        6 
C       0.64824452      -2.96959068      -0.97264910        6 
C       1.86645622      -2.02437648      -0.76981664        6 
C       1.25801028      -0.93584779       0.14915733        6 
O       0.38607057      -1.71751423       0.98993260        8 
H      -1.35136197      -1.25330029      -1.74434396        1 
H       0.64317080      -0.08315697      -1.75831240        1 
H      -0.25474628       3.90329214      -1.13974632        1 
H      -3.39121258       0.13116413       2.32564087        1 
H       0.86416780      -3.98324537      -0.63265224        1 
H       0.31068003      -3.02785346      -2.00969728        1 
H       2.67685278      -2.53139581      -0.24306308        1 
H       2.27008367      -1.61359609      -1.69505599        1 
H      -1.69290886       3.51203052      -2.13364776        1 
H      -1.75362615       3.35754621      -0.35067984        1 
H      -4.16627264       0.98091358       0.96670561        1 
H      -2.96648728       1.83888102       1.98975254        1 
H      -1.14987867      -2.97194057       0.36793164        1 
C       2.26411540      -0.18945966       0.99763211        6 
O       3.10218199       0.53084550       0.10597363        8 
H       2.84889489      -0.91838265       1.57765572        1 
H       1.75263332       0.48710218       1.68548179        1 
C       3.87697446       1.52152692       0.75622317        6 
H       4.47736732       2.01257628      -0.01031657        1 
H       4.54758804       1.07772222       1.50550424        1 
H       3.23229285       2.26310710       1.24374830        1 
