36
Lattice="0.0 0.0 0.0 0.0 0.0 0.0 0.0 0.0 0.0" Properties=species:S:1:pos:R:3:Z:I:1 pbc="F F F"
C      -1.18488993      -1.04073694      -0.54209582        6 
C       0.07299426      -0.10969020      -0.64117403        6 
C      -2.44044187      -0.41592885       0.04200176        6 
C      -0.07175405       1.23692641       0.03803831        6 
O      -2.86889029       0.58842187      -0.75437912        8 
O      -3.02137021      -0.78605861       1.02839783        8 
O       0.66885728       2.16905712      -0.59882483        8 
O      -0.72485978       1.47260050       1.02447798        8 
C       0.65721304       3.48376476      -0.01563511        6 
C      -3.99666253       1.33676967      -0.26404899        6 
C      -0.64471192      -2.22102076       0.30123265        6 
C       0.22082494      -3.12474507      -0.59576838        6 
C       1.46793129      -2.21771967      -0.80798855        6 
C       1.13042519      -1.00855123       0.10475319        6 
O       0.33957019      -1.59458459       1.14207400        8 
H      -1.45777451      -1.36905336      -1.54858643        1 
H       0.37312001       0.06486206      -1.67165141        1 
H       1.03131777       3.45146496       1.00918647        1 
H      -3.75110114       1.78527693       0.69950486        1 
H       0.48306867      -4.03947013      -0.06220951        1 
H      -0.27819905      -3.40428288      -1.52590129        1 
H       2.38232970      -2.69913540      -0.45859269        1 
H       1.62551093      -1.91904094      -1.84426018        1 
H       1.30970619       4.08548863      -0.64441094        1 
H      -0.35556861       3.89000481      -0.01159430        1 
H      -4.86831683       0.68993786      -0.15347309        1 
H      -4.18284511       2.10499148      -1.01159963        1 
H      -1.39431265      -2.70684694       0.91871861        1 
C       2.32785331      -0.30919820       0.71256809        6 
O       3.15413928       0.13826854      -0.34617695        8 
H       2.86257920      -1.02399857       1.35430183        1 
H       2.00609256       0.53022025       1.34418888        1 
C       4.21481673       0.96338635       0.09241909        6 
H       4.78317345       1.25365860      -0.79129188        1 
H       4.87848633       0.43141916       0.78852952        1 
H       3.83464745       1.86713452       0.58873935        1 
