36
Lattice="0.0 0.0 0.0 0.0 0.0 0.0 0.0 0.0 0.0" Properties=species:S:1:pos:R:3:Z:I:1 pbc="F F F"
C      -0.90421641       1.08212383       0.41435278        6 
C       0.26203822       0.04194661       0.62301838        6 
C      -2.26946917       0.58307575      -0.02306986        6 
C       0.07423753      -1.40169366       0.17192906        6 
O      -2.96854780       0.14291388       1.04818789        8 
O      -2.71083170       0.60890733      -1.14313816        8 
O      -1.13957730      -1.66449258      -0.33112961        8 
O       0.94418810      -2.23725334       0.25097026        8 
C      -1.36328074      -2.99691386      -0.82585995        6 
C      -4.26026868      -0.41960670       0.76603945        6 
C      -0.27790443       2.04901575      -0.63136218        6 
C       0.63114849       3.04032668       0.10806509        6 
C       1.77151724       2.08629787       0.55892935        6 
C       1.40285766       0.76835602      -0.18644771        6 
O       0.67131674       1.22701224      -1.33108687        8 
H      -1.06789814       1.59673000       1.36327293        1 
H       0.53804533      -0.02678937       1.67597864        1 
H      -1.27763382      -3.72274003      -0.01592797        1 
H      -4.15852405      -1.28967560       0.11472314        1 
H       0.99770947       3.80134777      -0.58311880        1 
H       0.12804120       3.54431335       0.93622974        1 
H       2.75045661       2.43714471       0.23089923        1 
H       1.82103043       1.94111284       1.63833247        1 
H      -2.37156386      -2.98510030      -1.23337473        1 
H      -0.63926327      -3.23678322      -1.60523529        1 
H      -4.90465300       0.31607747       0.28234320        1 
H      -4.66935623      -0.71165740       1.73090906        1 
H      -0.98988435       2.46164026      -1.34011103        1 
C       2.61307967      -0.03088353      -0.62335361        6 
O       3.36424199      -0.33199659       0.53883743        8 
H       3.20073717       0.58897153      -1.31677938        1 
H       2.31697631      -0.94389412      -1.14640106        1 
C       4.29687596      -1.37880881       0.33967094        6 
H       4.82399265      -1.52123427       1.28345938        1 
H       5.02667313      -1.12200548      -0.44154706        1 
H       3.78427105      -2.30898875       0.06605974        1 
