36
Lattice="0.0 0.0 0.0 0.0 0.0 0.0 0.0 0.0 0.0" Properties=species:S:1:pos:R:3:Z:I:1 pbc="F F F"
C      -1.28495933      -0.86748289      -0.73641188        6 
C       0.10961376      -0.14506021      -0.78863999        6 
C      -2.49640146      -0.05777397      -0.30263113        6 
C       0.03387600       1.36421174      -0.58535319        6 
O      -2.40596784       0.35127556       0.97606672        8 
O      -3.46773146       0.11463280      -0.99757883        8 
O       1.21963463       1.90982979      -0.26255063        8 
O      -0.95245432       2.02792513      -0.79372566        8 
C       1.24731314       3.34735514      -0.17610366        6 
C      -3.48566697       1.17519467       1.44600303        6 
C      -0.97897846      -2.02355476       0.25937207        6 
C      -0.15043746      -3.10370443      -0.45990141        6 
C       1.22822229      -2.39242065      -0.55897244        6 
C       0.95002717      -1.05409382       0.18488076        6 
O      -0.02821527      -1.43891821       1.16002975        8 
H      -1.54712965      -1.25657283      -1.71878996        1 
H       0.52629354      -0.23384009      -1.79614477        1 
H       0.56866056       3.69541437       0.60391666        1 
H      -4.43969552       0.65527418       1.34685138        1 
H      -0.09192993      -4.00501269       0.15230534        1 
H      -0.57008274      -3.37748670      -1.42958116        1 
H       2.00653207      -2.94727475      -0.03314497        1 
H       1.57031473      -2.23629733      -1.58192334        1 
H       2.27658998       3.60085738       0.06800707        1 
H       0.95745917       3.79124845      -1.12923013        1 
H      -3.51819079       2.10392464       0.87372763        1 
H      -3.26382845       1.37530744       2.49219763        1 
H      -1.84082316      -2.37751059       0.81998213        1 
C       2.16558654      -0.49509693       0.89346609        6 
O       3.17741873      -0.28972259      -0.07650110        8 
H       2.49092967      -1.23298957       1.64159948        1 
H       1.92328060       0.43649555       1.41206660        1 
C       4.28131068       0.43437364       0.42520117        6 
H       4.99381200       0.54457662      -0.39277889        1 
H       4.76953696      -0.09561693       1.25569208        1 
H       3.97613219       1.43033796       0.77446314        1 
