36
Lattice="0.0 0.0 0.0 0.0 0.0 0.0 0.0 0.0 0.0" Properties=species:S:1:pos:R:3:Z:I:1 pbc="F F F"
C      -0.91650967       1.13837743       0.45184456        6 
C       0.23189905       0.09576884       0.68815909        6 
C      -2.28792497       0.59976012       0.09297120        6 
C       0.01120408      -1.33124698       0.21850201        6 
O      -2.76960208      -0.15349738       1.10785726        8 
O      -2.90336756       0.83383236      -0.91516873        8 
O      -0.92651178      -1.43040032      -0.73718069        8 
O       0.67406556      -2.26873372       0.59632191        8 
C      -1.14919923      -2.73431464      -1.29983018        6 
C      -4.04020970      -0.78460945       0.87276604        6 
C      -0.30368562       2.05949274      -0.63503870        6 
C       0.63560985       3.06147816       0.05464989        6 
C       1.77660790       2.10801661       0.51239443        6 
C       1.36743356       0.77221155      -0.17331517        6 
O       0.62745166       1.20269896      -1.32155121        8 
H      -1.06464979       1.69467127       1.38185223        1 
H       0.52800988       0.02934798       1.73284441        1 
H      -1.46017117      -3.43558234      -0.52374386        1 
H      -3.97545224      -1.44747603       0.00804571        1 
H       0.99681493       3.79576029      -0.66737430        1 
H       0.15776800       3.59802924       0.87728051        1 
H       2.75072359       2.43244735       0.14446636        1 
H       1.85263776       2.00193597       1.59467836        1 
H      -1.93627252      -2.59625786      -2.03756333        1 
H      -0.23895857      -3.10393862      -1.77424718        1 
H      -4.81397470      -0.03675115       0.69343234        1 
H      -4.25606664      -1.35201854       1.77540056        1 
H      -1.02454868       2.45829244      -1.34256314        1 
C       2.53434151      -0.09782753      -0.59118315        6 
O       3.28423790      -0.38644521       0.57308569        8 
H       3.14112610       0.45240711      -1.32515154        1 
H       2.18405135      -1.01974060      -1.06980128        1 
C       4.18054194      -1.47021434       0.40489212        6 
H       4.71162815      -1.59466730       1.34868505        1 
H       4.90934864      -1.26729964      -0.39258695        1 
H       3.63552991      -2.39366036       0.17267514        1 
