36
Lattice="0.0 0.0 0.0 0.0 0.0 0.0 0.0 0.0 0.0" Properties=species:S:1:pos:R:3:Z:I:1 pbc="F F F"
C      -1.03188127      -0.76702021      -0.52186917        6 
C       0.33201758       0.00249855      -0.61676694        6 
C      -2.20146854      -0.05012471       0.11436033        6 
C       0.30014483       1.41485729      -0.04712604        6 
O      -3.35753636      -0.54868826      -0.38798164        8 
O      -2.16578925       0.79132564       0.97504520        8 
O      -0.30655798       2.22762382      -0.94480391        8 
O       0.71666370       1.79432716       1.01476562        8 
C      -0.56491720       3.56926116      -0.49359765        6 
C      -4.57155194      -0.02559251       0.18254064        6 
C      -0.61339426      -2.02035681       0.32077481        6 
C       0.12877383      -3.00074889      -0.60531216        6 
C       1.46567893      -2.23339914      -0.81519533        6 
C       1.27734075      -1.00007278       0.11442463        6 
O       0.42862172      -1.51871298       1.15616891        8 
H      -1.35982391      -1.08372852      -1.51110014        1 
H       0.61370258       0.10676603      -1.66373793        1 
H       0.36922475       4.08231066      -0.26040632        1 
H      -4.64237428       1.04889668       0.00657780        1 
H       0.29057953      -3.94858339      -0.08899436        1 
H      -0.41367546      -3.20447706      -1.53037932        1 
H       2.32188078      -2.82039012      -0.48055583        1 
H       1.64304576      -1.94395919      -1.85126826        1 
H      -1.07463366       4.06049929      -1.31996524        1 
H      -1.19837340       3.54531878       0.39429817        1 
H      -4.60326935      -0.21587113       1.25641786        1 
H      -5.37876904      -0.54984405      -0.32438691        1 
H      -1.40742589      -2.44655217       0.93050518        1 
C       2.55605223      -0.45257317       0.71430345        6 
O       3.26355901       0.19335501      -0.33485629        8 
H       3.14758934      -1.28295351       1.12636651        1 
H       2.31651191       0.25004202       1.51542702        1 
C       4.39193681       0.91193940       0.12833463        6 
H       4.86686216       1.36275737      -0.74356001        1 
H       5.11298613       0.24816362       0.62595636        1 
H       4.09580482       1.70258486       0.82988490        1 
