36
Lattice="0.0 0.0 0.0 0.0 0.0 0.0 0.0 0.0 0.0" Properties=species:S:1:pos:R:3:Z:I:1 pbc="F F F"
C      -1.48160782      -0.47635209      -0.90353019        6 
C       0.02742552      -0.10052720      -0.86034673        6 
C      -2.53411886       0.27388566      -0.09636677        6 
C       0.45205511       1.35132619      -0.70894318        6 
O      -2.07938439       0.82742397       1.02573036        8 
O      -3.70794295       0.22056088      -0.39465094        8 
O       1.66092543       1.50202706      -1.30205065        8 
O      -0.13502607       2.26671205      -0.19199221        8 
C       2.25613164       2.80517481      -1.20580853        6 
C      -3.05200915       1.48277183       1.85553668        6 
C      -1.38144311      -1.89340940      -0.25214370        6 
C      -0.49116760      -2.84300360      -1.09586523        6 
C       0.94042051      -2.41692544      -0.64579565        6 
C       0.60133624      -1.15985167       0.18059131        6 
O      -0.56514117      -1.60537244       0.88852793        8 
H      -1.85764271      -0.52333737      -1.92516075        1 
H       0.44096684      -0.37459161      -1.83100804        1 
H       2.40411105       3.08265348      -0.16042887        1 
H      -3.79474121       0.76745430       2.21351471        1 
H      -0.69933939      -3.88390296      -0.84632800        1 
H      -0.65865992      -2.71714167      -2.16777090        1 
H       1.39274563      -3.16909415       0.00313181        1 
H       1.62518210      -2.21125628      -1.46777644        1 
H       3.21271032       2.72460798      -1.71745809        1 
H       1.62453896       3.55417194      -1.68659769        1 
H      -3.55359953       2.27544787       1.29846577        1 
H      -2.48621722       1.89933729       2.68546275        1 
H      -2.33654347      -2.30441457       0.06669004        1 
C       1.62700804      -0.69493012       1.19272139        6 
O       2.87951927      -0.56574070       0.54831542        8 
H       1.67624621      -1.44049396       1.99951602        1 
H       1.30969343       0.25951736       1.63649758        1 
C       3.85962895       0.04228916       1.36456374        6 
H       4.77520267       0.10298877       0.77593914        1 
H       4.05445739      -0.54701886       2.27196592        1 
H       3.55642770       1.05557144       1.66428613        1 
