36
Lattice="0.0 0.0 0.0 0.0 0.0 0.0 0.0 0.0 0.0" Properties=species:S:1:pos:R:3:Z:I:1 pbc="F F F"
C      -1.05356353      -1.16496897      -0.62146962        6 
C       0.22330742      -0.24753237      -0.78223961        6 
C      -2.36966157      -0.45590076      -0.38457426        6 
C      -0.12835464       1.23088116      -0.66794964        6 
O      -2.35443068       0.27496263       0.74837675        8 
O      -3.32741143      -0.54323208      -1.11217327        8 
O       0.41420383       1.87331028       0.37536832        8 
O      -0.86272052       1.76762839      -1.46404179        8 
C       0.04127579       3.25533320       0.52370655        6 
C      -3.53592196       1.05465777       1.00637296        6 
C      -0.61083679      -2.08586955       0.56047114        6 
C       0.31107709      -3.17719331      -0.00556367        6 
C       1.56442938      -2.32643387      -0.35600798        6 
C       1.18580881      -0.93170997       0.23529623        6 
O       0.29719355      -1.27158677       1.31238876        8 
H      -1.21001384      -1.74940581      -1.52634993        1 
H       0.60718919      -0.34757616      -1.79773549        1 
H      -1.03795755       3.34098132       0.65793566        1 
H      -4.41328996       0.41086303       1.08081946        1 
H       0.53439249      -3.91299782       0.76864771        1 
H      -0.11989628      -3.69884046      -0.86190579        1 
H       2.46104524      -2.70952952       0.13292637        1 
H       1.76826407      -2.27533300      -1.42584738        1 
H       0.56617211       3.60193718       1.41124374        1 
H       0.34245792       3.82995212      -0.35300820        1 
H      -3.68589191       1.77740354       0.20259504        1 
H      -3.34872737       1.55902100       1.95192402        1 
H      -1.41946482      -2.42315960       1.20503098        1 
C       2.37112034      -0.14561216       0.75831315        6 
O       3.08513236       0.33088478      -0.37242958        8 
H       3.00512436      -0.80867601       1.36471356        1 
H       2.03258005       0.68316499       1.38301708        1 
C       4.14890013       1.19591196      -0.02592286        6 
H       4.61664492       1.52126019      -0.95539505        1 
H       4.89922988       0.68407040       0.59292218        1 
H       3.78114971       2.07491637       0.52103423        1 
