36
Lattice="0.0 0.0 0.0 0.0 0.0 0.0 0.0 0.0 0.0" Properties=species:S:1:pos:R:3:Z:I:1 pbc="F F F"
C      -1.35384192      -0.88465348      -0.76526620        6 
C       0.06429409      -0.24314624      -0.84954191        6 
C      -2.43655362      -0.12904361      -0.01099062        6 
C       0.02136523       1.27477766      -0.93102207        6 
O      -1.96007179       0.76314322       0.87235157        8 
O      -3.60838577      -0.40700939      -0.11251383        8 
O       1.08522052       1.88925541      -0.38981347        8 
O      -0.87001033       1.86703310      -1.49113177        8 
C       1.11004928       3.32369714      -0.51800902        6 
C      -2.94168656       1.44980905       1.66765783        6 
C      -1.02023218      -2.14193709       0.08925873        6 
C      -0.08874690      -3.09898995      -0.68631273        6 
C       1.28779877      -2.39496157      -0.51091690        6 
C       0.86709279      -1.09079317       0.21265509        6 
O      -0.16152548      -1.58033104       1.09293824        8 
H      -1.76833849      -1.14093403      -1.73832088        1 
H       0.47553747      -0.49727591      -1.83253954        1 
H       0.23281665       3.76346407      -0.04156863        1 
H      -3.53362166       0.73584943       2.24178594        1 
H      -0.09531251      -4.09002516      -0.23077636        1 
H      -0.38941550      -3.20896337      -1.73059546        1 
H       1.94710284      -2.97069637       0.14080897        1 
H       1.81557111      -2.20863138      -1.44572086        1 
H       2.02172431       3.64219620      -0.01727660        1 
H       1.12932875       3.61235648      -1.56979516        1 
H      -3.60247632       2.03586643       1.02718418        1 
H      -2.37401006       2.09907136       2.33065723        1 
H      -1.88665036      -2.60251893       0.55844354        1 
C       1.96250147      -0.44381651       1.03090342        6 
O       3.06409242      -0.21407054       0.16907041        8 
H       2.24286832      -1.13523040       1.83916049        1 
H       1.61244553       0.49062324       1.47959852        1 
C       4.04692583       0.62337619       0.74037600        6 
H       4.84506548       0.73231782       0.00547222        1 
H       4.46535743       0.18892442       1.65968731        1 
H       3.63382939       1.61380494       0.97467386        1 
