36
Lattice="0.0 0.0 0.0 0.0 0.0 0.0 0.0 0.0 0.0" Properties=species:S:1:pos:R:3:Z:I:1 pbc="F F F"
C      -0.94426541      -0.99775223      -0.72942424        6 
C       0.33208634      -0.07344332      -0.76448699        6 
C      -2.30376750      -0.35904904      -0.49057067        6 
C       0.21661500       1.41319306      -0.46002934        6 
O      -2.63840749      -0.31085937       0.81138324        8 
O      -3.05282290      -0.03799767      -1.38282801        8 
O      -0.99736692       1.80076675      -0.04375950        8 
O       1.14080479       2.18113889      -0.59224514        8 
C      -1.17365770       3.20689953       0.20786340        6 
C      -3.91790315       0.26719515       1.11022924        6 
C      -0.53818745      -2.03146812       0.36387831        6 
C       0.43053816      -3.05397127      -0.25104955        6 
C       1.70111289      -2.17636038      -0.42440268        6 
C       1.26073132      -0.84449513       0.24845646        6 
O       0.31594649      -1.27487492       1.23569185        8 
H      -1.04637304      -1.47883944      -1.70252188        1 
H       0.78880600      -0.09940674      -1.75423651        1 
H      -0.96798233       3.78157727      -0.69594462        1 
H      -4.72020699      -0.31582137       0.65466269        1 
H       0.60482050      -3.87225441       0.44947177        1 
H       0.06048520      -3.47872843      -1.18633615        1 
H       2.55771509      -2.59410225       0.10540779        1 
H       1.99669398      -2.03111500      -1.46300899        1 
H      -2.21423309       3.31776433       0.50367742        1 
H      -0.50842433       3.53605034       1.00698408        1 
H      -3.96807280       1.29173845       0.73746416        1 
H      -3.99881294       0.24933588       2.19496166        1 
H      -1.36916774      -2.43596361       0.93341218        1 
C       2.39741087      -0.08920687       0.90592390        6 
O       3.39878523       0.10745273      -0.07529440        8 
H       2.77864981      -0.69797166       1.73864912        1 
H       2.05518817       0.86693826       1.31552332        1 
C       4.31467682       1.13504303       0.25564701        6 
H       5.03901283       1.18925838      -0.55747500        1 
H       4.84642444       0.91481240       1.19245743        1 
H       3.80147212       2.09986580       0.34598893        1 
