36
Lattice="0.0 0.0 0.0 0.0 0.0 0.0 0.0 0.0 0.0" Properties=species:S:1:pos:R:3:Z:I:1 pbc="F F F"
C      -1.21310831      -0.99471311      -0.50337195        6 
C       0.06191520      -0.09075887      -0.62279064        6 
C      -2.47080181      -0.34054230       0.04507891        6 
C      -0.04406865       1.26941898       0.04176016        6 
O      -2.94499316       0.55901583      -0.84501388        8 
O      -3.01927708      -0.61847221       1.07922408        8 
O       0.91535296       2.09673356      -0.42769422        8 
O      -0.85712963       1.60757729       0.86504262        8 
C       0.93975071       3.41703487       0.14259321        6 
C      -4.07767364       1.33154006      -0.40814150        6 
C      -0.70135929      -2.16059391       0.37840184        6 
C       0.11512793      -3.12436951      -0.49926974        6 
C       1.37650678      -2.25710808      -0.78149300        6 
C       1.10882322      -1.01384164       0.11177427        6 
O       0.31985982      -1.54319837       1.18141496        8 
H      -1.47940361      -1.34967962      -1.50221152        1 
H       0.35631863       0.07222754      -1.65785279        1 
H       1.08756566       3.36513619       1.22265153        1 
H      -3.81167694       1.90648261       0.48012639        1 
H       0.37076084      -4.02151741       0.06651555        1 
H      -0.41572361      -3.42961682      -1.40322029        1 
H       2.29096694      -2.75435543      -0.45600684        1 
H       1.50197367      -1.98934326      -1.83064892        1 
H       1.77504069       3.92330984      -0.33633374        1 
H       0.00474111       3.94035148      -0.06390719        1 
H      -4.92257267       0.67978701      -0.18067003        1 
H      -4.31673561       1.99285305      -1.23838162        1 
H      -1.45786112      -2.59710510       1.02354519        1 
C       2.35495795      -0.36340041       0.67504923        6 
O       3.18193796       0.00765123      -0.41122255        8 
H       2.86221895      -1.09043704       1.32519993        1 
H       2.09749866       0.50871828       1.28953882        1 
C       4.25106832       0.84984076      -0.02998846        6 
H       4.82076571       1.07490153      -0.93177103        1 
H       4.91168562       0.35986672       0.69918431        1 
H       3.87895568       1.78799829       0.40436666        1 
