36
Lattice="0.0 0.0 0.0 0.0 0.0 0.0 0.0 0.0 0.0" Properties=species:S:1:pos:R:3:Z:I:1 pbc="F F F"
C      -1.03232528      -1.09351679      -0.70541026        6 
C       0.27730576      -0.20144718      -0.81861141        6 
C      -2.32318507      -0.33368962      -0.44791373        6 
C       0.00759783       1.29472920      -0.75202189        6 
O      -2.67980554      -0.34288909       0.85349295        8 
O      -2.95109406       0.23728734      -1.30328954        8 
O       0.27734858       1.85732768       0.44381008        8 
O      -0.49662646       1.90191510      -1.66252068        8 
C      -0.03269363       3.25793013       0.55838689        6 
C      -3.87164572       0.39351721       1.18279258        6 
C      -0.60724855      -2.09509808       0.40169423        6 
C       0.35638005      -3.13074289      -0.20715349        6 
C       1.63460330      -2.26361509      -0.38866292        6 
C       1.18930280      -0.90730172       0.23240625        6 
O       0.25609739      -1.31593487       1.24323571        8 
H      -1.19443844      -1.59605826      -1.65953387        1 
H       0.69107127      -0.33379054      -1.81770658        1 
H      -1.09045369       3.43163984       0.35608793        1 
H      -4.73853983      -0.03633493       0.67800773        1 
H       0.52483773      -3.94578535       0.49823410        1 
H      -0.01682150      -3.56012734      -1.13919115        1 
H       2.47584688      -2.66889211       0.17544905        1 
H       1.94913181      -2.15996371      -1.42732420        1 
H       0.21304859       3.52511042       1.58406239        1 
H       0.56512223       3.83971261      -0.14501016        1 
H      -3.76791583       1.43778617       0.88423906        1 
H      -3.97462369       0.30884085       2.26227451        1 
H      -1.42752003      -2.49122680       0.99276152        1 
C       2.31451971      -0.10421535       0.85406394        6 
O       3.05853046       0.46708793      -0.21098791        8 
H       2.94896659      -0.77227344       1.45419816        1 
H       1.90462705       0.67106788       1.50545292        1 
C       4.09517977       1.31879945       0.23586705        6 
H       4.59826917       1.70693168      -0.64996494        1 
H       4.82364358       0.77478682       0.85329203        1 
H       3.69492614       2.15851247       0.82062224        1 
