36
Lattice="0.0 0.0 0.0 0.0 0.0 0.0 0.0 0.0 0.0" Properties=species:S:1:pos:R:3:Z:I:1 pbc="F F F"
C      -1.20985255      -0.68284665      -0.60104757        6 
C       0.18236260       0.00779893      -0.66223350        6 
C      -2.39857427       0.25235308      -0.49902941        6 
C       0.22873951       1.34058360       0.06580628        6 
O      -3.37459346      -0.25144832       0.27987243        8 
O      -2.49188407       1.29042777      -1.10610092        8 
O       1.25043307       2.09730828      -0.39131909        8 
O      -0.52234257       1.69781584       0.93757902        8 
C       1.39792771       3.38608189       0.23085033        6 
C      -4.56192762       0.55556452       0.40123456        6 
C      -0.99265373      -1.79532238       0.46513549        6 
C      -0.35565650      -2.99807047      -0.25207012        6 
C       1.03380858      -2.39774396      -0.61651782        6 
C       1.01110227      -1.04998369       0.16219372        6 
O       0.11171081      -1.31156388       1.24799413        8 
H      -1.37807045      -1.16335702      -1.57218551        1 
H       0.57071995       0.13147079      -1.66995665        1 
H       1.57901757       3.27587000       1.30160345        1 
H      -5.03578964       0.68510477      -0.57307917        1 
H      -0.25621482      -3.83645091       0.43935179        1 
H      -0.92957786      -3.33238448      -1.11859210        1 
H       1.85285495      -3.02310152      -0.25972501        1 
H       1.17750171      -2.24528771      -1.68654568        1 
H       2.25297650       3.84763581      -0.25840015        1 
H       0.49846246       3.98495356       0.08068921        1 
H      -4.31082363       1.53286725       0.81450724        1 
H      -5.21535163       0.00770885       1.07660187        1 
H      -1.84373835      -1.99224474       1.10851266        1 
C       2.35486360      -0.60781034       0.70153226        6 
O       3.22550120      -0.44320259      -0.40093263        8 
H       2.73192472      -1.37818365       1.39029016        1 
H       2.25723016       0.32647597       1.26955739        1 
C       4.45182045       0.16814306      -0.05303366        6 
H       5.04376230       0.24363778      -0.96523976        1 
H       5.00503303      -0.42903303       0.68570504        1 
H       4.28980659       1.17525151       0.35464849        1 
