36
Lattice="0.0 0.0 0.0 0.0 0.0 0.0 0.0 0.0 0.0" Properties=species:S:1:pos:R:3:Z:I:1 pbc="F F F"
C      -1.14136057      -0.54302796      -0.79559909        6 
C       0.33225676      -0.00430909      -0.72889105        6 
C      -2.12508057       0.17907020       0.12641911        6 
C       0.47863981       1.44915401      -0.30549723        6 
O      -3.10867770      -0.64727798       0.53491617        8 
O      -2.10500890       1.35348592       0.39970921        8 
O       0.00095088       2.23295829      -1.29686895        8 
O       1.02920225       1.87974900       0.67575028        8 
C      -0.06032336       3.63951130      -1.01046857        6 
C      -4.12913236      -0.05690365       1.36251354        6 
C      -0.90725804      -1.99810270      -0.32052635        6 
C      -0.02248704      -2.76992982      -1.32402378        6 
C       1.39364183      -2.24585576      -0.95605679        6 
C       1.04573419      -1.14647049       0.07338357        6 
O      -0.03379723      -1.76954613       0.80053524        8 
H      -1.55103195      -0.47711826      -1.80641434        1 
H       0.72176548      -0.00232791      -1.74890093        1 
H       0.92924892       4.02645731      -0.76347514        1 
H      -4.64653134       0.73707363       0.82159581        1 
H      -0.10943484      -3.84511330      -1.16244918        1 
H      -0.30331470      -2.56442512      -2.35982388        1 
H       1.98707359      -3.02033160      -0.46679499        1 
H       1.96469612      -1.86629291      -1.80273701        1 
H      -0.43818396       4.10489750      -1.91852880        1 
H      -0.74347612       3.81354018      -0.17776919        1 
H      -3.68839139       0.35393048       2.27156782        1 
H      -4.81259621      -0.86894843       1.60003056        1 
H      -1.80243117      -2.51217462       0.01150433        1 
C       2.16403623      -0.77663314       1.02202902        6 
O       3.21521768      -0.23772231       0.23504754        8 
H       2.49757704      -1.68262649       1.54876990        1 
H       1.81292486      -0.04712378       1.75525694        1 
C       4.15923589       0.49030252       0.99998112        6 
H       4.91776714       0.85679176       0.30735287        1 
H       4.64303237      -0.14790501       1.75300850        1 
H       3.68169490       1.34104320       1.50111933        1 
