36
Lattice="0.0 0.0 0.0 0.0 0.0 0.0 0.0 0.0 0.0" Properties=species:S:1:pos:R:3:Z:I:1 pbc="F F F"
C      -1.12316466      -1.09855801      -0.64565604        6 
C       0.21432774      -0.28353814      -0.81131940        6 
C      -2.40362831      -0.38802652      -0.25755653        6 
C       0.00607119       1.22424808      -0.78966956        6 
O      -2.21313471       0.64591987       0.57780714        8 
O      -3.49525068      -0.77398530      -0.60374915        8 
O       0.42379453       1.84606017       0.32207518        8 
O      -0.49469077       1.80331763      -1.72519021        8 
C       0.17943926       3.26104226       0.37554197        6 
C      -3.39718779       1.33919158       1.01183971        6 
C      -0.71545803      -2.10350510       0.48404650        6 
C       0.18572703      -3.19401528      -0.12078505        6 
C       1.49483236      -2.38701631      -0.34954803        6 
C       1.12227514      -0.99558380       0.24176480        6 
O       0.19224951      -1.33963648       1.28416746        8 
H      -1.36782157      -1.63397635      -1.56124609        1 
H       0.60182488      -0.46406683      -1.81350274        1 
H      -0.88920294       3.46284731       0.28740715        1 
H      -4.07213925       0.65448180       1.52682028        1 
H       0.33404624      -3.99827985       0.60133640        1 
H      -0.22960015      -3.62713098      -1.03243339        1 
H       2.32817750      -2.81453927       0.20979536        1 
H       1.79330706      -2.32432611      -1.39593137        1 
H       0.55177196       3.58287354       1.34597723        1 
H       0.70764746       3.77370782      -0.42975834        1 
H      -3.91102099       1.77871837       0.15572511        1 
H      -3.04549378       2.11334705       1.69019817        1 
H      -1.54416235      -2.45436063       1.09549653        1 
C       2.29705506      -0.23438892       0.82072521        6 
O       3.06681116       0.23664865      -0.27510594        8 
H       2.89291413      -0.91171882       1.44946929        1 
H       1.94375841       0.59675456       1.43477412        1 
C       4.12627869       1.08499593       0.12199430        6 
H       4.64009335       1.40570821      -0.78443000        1 
H       4.83992272       0.56006780       0.77245090        1 
H       3.74691722       1.96781174       0.65463508        1 
