36
Lattice="0.0 0.0 0.0 0.0 0.0 0.0 0.0 0.0 0.0" Properties=species:S:1:pos:R:3:Z:I:1 pbc="F F F"
C      -1.20369831      -0.74794916      -0.64769470        6 
C       0.17367865      -0.01648762      -0.69661877        6 
C      -2.41420634       0.16373692      -0.55632190        6 
C       0.16193789       1.34263471      -0.01549465        6 
O      -3.24645898      -0.17316323       0.44368090        8 
O      -2.63392055       1.04711812      -1.34909097        8 
O       1.26823498       2.04672468      -0.33775916        8 
O      -0.71126254       1.77489626       0.69410781        8 
C       1.35917398       3.36500366       0.23215220        6 
C      -4.40974253       0.66184190       0.59792542        6 
C      -0.97035803      -1.83266048       0.44051816        6 
C      -0.28427877      -3.02784101      -0.24158489        6 
C       1.09156337      -2.39305547      -0.59318597        6 
C       1.01740518      -1.03386499       0.16296311        6 
O       0.10338995      -1.29932812       1.23638603        8 
H      -1.34600791      -1.23924026      -1.61574600        1 
H       0.57642978       0.09444387      -1.70086302        1 
H       1.37540627       3.31115294       1.32224656        1 
H      -5.01998881       0.63766676      -0.30615725        1 
H      -0.17217502      -3.84982936       0.46732618        1 
H      -0.83210093      -3.39511529      -1.11166038        1 
H       1.92307666      -2.98722539      -0.21276696        1 
H       1.24938660      -2.25320109      -1.66287041        1 
H       2.29140528       3.77907080      -0.14572521        1 
H       0.51070470       3.97381772      -0.08304633        1 
H      -4.10455364       1.68846018       0.80348502        1 
H      -4.95476477       0.24518347       1.44208448        1 
H      -1.82624489      -2.04391743       1.07280703        1 
C       2.34107487      -0.56107653       0.72600231        6 
O       3.23555725      -0.39590454      -0.35685875        8 
H       2.71215416      -1.31983365       1.43079499        1 
H       2.21776130       0.37700476       1.28064399        1 
C       4.43781820       0.24975191       0.01158890        6 
H       5.05171107       0.32383998      -0.88614706        1 
H       4.98546410      -0.32174879       0.77450469        1 
H       4.24195733       1.25944191       0.39766963        1 
