36
Lattice="0.0 0.0 0.0 0.0 0.0 0.0 0.0 0.0 0.0" Properties=species:S:1:pos:R:3:Z:I:1 pbc="F F F"
C      -0.99279138       1.02992849       0.79853321        6 
C       0.24319300       0.08285233       0.78500938        6 
C      -2.20870384       0.62995268      -0.01935983        6 
C      -0.02372762      -1.40039731       0.60117205        6 
O      -1.90962333      -0.15681218      -1.06756349        8 
O      -3.31238308       1.07938548       0.18329480        8 
O      -1.24014754      -1.72505148       1.09660533        8 
O       0.78321603      -2.23022375       0.26315464        8 
C      -1.57802831      -3.12212898       1.09006605        6 
C      -2.99672678      -0.48419483      -1.94904174        6 
C      -0.37101991       2.27130095       0.08389683        6 
C       0.72283151       2.90992445       0.96912478        6 
C       1.91490688       1.93736009       0.72825194        6 
C       1.24476699       0.85170091      -0.14921586        6 
O       0.37558555       1.65191060      -0.97190731        8 
H      -1.34813770       1.26236641       1.80040246        1 
H       0.67076131       0.08870606       1.79388563        1 
H      -0.85959307      -3.69424398       1.67891225        1 
H      -3.43265490       0.42267160      -2.37028735        1 
H       0.95036903       3.91912911       0.62356109        1 
H       0.41991914       2.97415943       2.01654472        1 
H       2.71201878       2.41990141       0.16057946        1 
H       2.34930703       1.53044348       1.64080431        1 
H      -2.57088809      -3.18119713       1.53070682        1 
H      -1.58930004      -3.50379049       0.06763779        1 
H      -3.76917056      -1.03818216      -1.41249898        1 
H      -2.55815710      -1.09794043      -2.73282692        1 
H      -1.10322657       2.95866511      -0.33441203        1 
C       2.19216638       0.05258719      -1.01757642        6 
O       3.20070637      -0.47260613      -0.17325996        8 
H       2.62579628       0.72583224      -1.77134845        1 
H       1.65723446      -0.74827597      -1.53785330        1 
C       3.90311552      -1.55745048      -0.75105865        6 
H       4.64584690      -1.88096885      -0.02115836        1 
H       4.41775706      -1.25589873      -1.67465132        1 
H       3.22267128      -2.38938787      -0.96755970        1 
