36
Lattice="0.0 0.0 0.0 0.0 0.0 0.0 0.0 0.0 0.0" Properties=species:S:1:pos:R:3:Z:I:1 pbc="F F F"
C      -1.01874273      -1.15837987      -0.61739718        6 
C       0.26422948      -0.25367732      -0.79787934        6 
C      -2.35745577      -0.47617090      -0.43179111        6 
C      -0.01509408       1.23744626      -0.67557352        6 
O      -2.37408357       0.36758852       0.61563377        8 
O      -3.32015593      -0.69329228      -1.12834538        8 
O       0.14554701       1.74108149       0.55733325        8 
O      -0.34205967       1.90756422      -1.62737628        8 
C      -0.18915852       3.12931131       0.71313010        6 
C      -3.61423597       1.05874079       0.85233505        6 
C      -0.59072367      -2.05487554       0.59099604        6 
C       0.32779423      -3.16505014       0.05250194        6 
C       1.59204137      -2.33116983      -0.30287290        6 
C       1.21315062      -0.92204250       0.24718677        6 
O       0.31679886      -1.23096273       1.32689271        8 
H      -1.15377756      -1.77079489      -1.50742103        1 
H       0.65027565      -0.37202894      -1.80798028        1 
H      -1.23599875       3.29471732       0.45345902        1 
H      -4.41822558       0.34685868       1.04445400        1 
H       0.53795981      -3.88775373       0.84247444        1 
H      -0.10024393      -3.69925362      -0.79739164        1 
H       2.47850479      -2.70652943       0.21007416        1 
H       1.81086929      -2.30886711      -1.37073833        1 
H      -0.01505322       3.35272590       1.76360368        1 
H       0.44007180       3.75199345       0.07534977        1 
H      -3.87561748       1.67121354      -0.01200700        1 
H      -3.43465201       1.67984121       1.72707522        1 
H      -1.40614355      -2.37377720       1.23664968        1 
C       2.38476382      -0.10501328       0.75467973        6 
O       3.06093041       0.40558759      -0.38387171        8 
H       3.05192546      -0.74770345       1.34685204        1 
H       2.02569583       0.70725200       1.39168447        1 
C       4.12630413       1.27428636      -0.04934106        6 
H       4.56277255       1.62414898      -0.98486740        1 
H       4.89864575       0.75668408       0.53645295        1 
H       3.76652799       2.13774106       0.52690746        1 
