36
Lattice="0.0 0.0 0.0 0.0 0.0 0.0 0.0 0.0 0.0" Properties=species:S:1:pos:R:3:Z:I:1 pbc="F F F"
C      -1.13707850      -0.54576748      -0.78705305        6 
C       0.32686371       0.00423369      -0.73718146        6 
C      -2.09515833       0.13195344       0.19180607        6 
C       0.46540530       1.46997791      -0.35457566        6 
O      -3.16473654      -0.65553910       0.43046835        8 
O      -1.98709145       1.24242215       0.64800862        8 
O      -0.18684814       2.21326378      -1.27805971        8 
O       1.14818060       1.94566909       0.51565170        8 
C      -0.23778969       3.62598822      -1.02202085        6 
C      -4.17172492      -0.11022204       1.30394401        6 
C      -0.88051756      -2.00333559      -0.32347379        6 
C       0.01424359      -2.75791270      -1.33077801        6 
C       1.42420246      -2.21911297      -0.95836605        6 
C       1.06120175      -1.12308939       0.06909109        6 
O      -0.00881016      -1.76437712       0.79695251        8 
H      -1.57932704      -0.47640340      -1.78295020        1 
H       0.70969647      -0.00596862      -1.76091710        1 
H       0.76835167       4.04209944      -0.95372357        1 
H      -4.58314821       0.80919131       0.88460408        1 
H      -0.05997927      -3.83514304      -1.17654701        1 
H      -0.26904380      -2.54888269      -2.36518683        1 
H       2.02404937      -2.98741697      -0.46728876        1 
H       1.99364503      -1.83353163      -1.80338115        1 
H      -0.77380337       4.05557119      -1.86594412        1 
H      -0.77655849       3.81177423      -0.09145124        1 
H      -3.74699241       0.09937110       2.28637653        1 
H      -4.93949977      -0.87763477       1.37323424        1 
H      -1.76882838      -2.53078639       0.00749086        1 
C       2.17313734      -0.73759349       1.01875992        6 
O       3.24130145      -0.23874736       0.23002907        8 
H       2.48600865      -1.63222777       1.57685851        1 
H       1.82467102       0.01786464       1.72697325        1 
C       4.17535149       0.51765236       0.97945651        6 
H       4.94058139       0.86123658       0.28244528        1 
H       4.65261710      -0.09283946       1.75942207        1 
H       3.69076777       1.38472613       1.44387934        1 
