36
Lattice="0.0 0.0 0.0 0.0 0.0 0.0 0.0 0.0 0.0" Properties=species:S:1:pos:R:3:Z:I:1 pbc="F F F"
C      -0.92904708       1.06175839       0.77229508        6 
C       0.27621906       0.06114167       0.75540189        6 
C      -2.23248280       0.62177696       0.13283676        6 
C      -0.03025783      -1.40339312       0.48629648        6 
O      -2.05680662       0.11397366      -1.10135463        8 
O      -3.31624277       0.78539115       0.64046335        8 
O      -1.28134804      -1.71421184       0.88822459        8 
O       0.76676675      -2.23874327       0.13747806        8 
C      -1.65850970      -3.09933857       0.80196424        6 
C      -3.24516993      -0.31667281      -1.78388672        6 
C      -0.31289543       2.23940307      -0.04819697        6 
C       0.75695534       2.95464080       0.80129528        6 
C       1.93448407       1.94066924       0.71077833        6 
C       1.30859128       0.81381194      -0.15348739        6 
O       0.46108736       1.55864758      -1.04284693        8 
H      -1.18673953       1.36715351       1.78439328        1 
H       0.68947149       0.01384790       1.76789273        1 
H      -0.99922177      -3.71330646       1.41729786        1 
H      -3.93523283       0.51729404      -1.92099233        1 
H       1.01872448       3.91266184       0.34990832        1 
H       0.42135749       3.14313339       1.82293442        1 
H       2.78944900       2.36883032       0.18571279        1 
H       2.28358099       1.57908925       1.67755124        1 
H      -2.68081630      -3.14156599       1.17108887        1 
H      -1.60691993      -3.44227425      -0.23259827        1 
H      -3.74565546      -1.10371970      -1.21630943        1 
H      -2.90555336      -0.69407529      -2.74595905        1 
H      -1.04404318       2.88512149      -0.53048578        1 
C       2.31237487       0.00486969      -0.94728932        6 
O       3.25386631      -0.51698419      -0.02671925        8 
H       2.80284294       0.67319796      -1.66994877        1 
H       1.81579842      -0.79762953      -1.50037261        1 
C       4.00390499      -1.59805323      -0.54959159        6 
H       4.68682867      -1.92204989       0.23631518        1 
H       4.59066009      -1.29244435      -1.42786361        1 
H       3.34565743      -2.43084897      -0.82404000        1 
