36
Lattice="0.0 0.0 0.0 0.0 0.0 0.0 0.0 0.0 0.0" Properties=species:S:1:pos:R:3:Z:I:1 pbc="F F F"
C      -1.09863264      -0.95019676      -0.84835972        6 
C       0.19641668      -0.10199363      -0.83879938        6 
C      -2.23393741      -0.61346330       0.11281303        6 
C       0.13973792       1.41821661      -0.83043729        6 
O      -1.89687736       0.23647266       1.09075177        8 
O      -3.29347221      -1.19764464       0.07512199        8 
O      -1.11710005       1.90228100      -0.83310497        8 
O       1.10468142       2.11786348      -1.03117289        8 
C      -1.25006204       3.31991058      -1.03732079        6 
C      -2.88416904       0.44452716       2.11441122        6 
C      -0.49833897      -2.26969793      -0.25694907        6 
C       0.63313074      -2.84024020      -1.14717856        6 
C       1.84844798      -1.96518158      -0.71306243        6 
C       1.13150027      -0.90703283       0.15139544        6 
O       0.20713538      -1.74104180       0.87714694        8 
H      -1.52616655      -1.07874625      -1.84175014        1 
H       0.64039538      -0.23999114      -1.83083924        1 
H      -0.81004645       3.61132064      -1.99236499        1 
H      -3.10795948      -0.49442563       2.62336687        1 
H       0.79561540      -3.89589880      -0.92720772        1 
H       0.39917702      -2.75324593      -2.21071129        1 
H       2.54414721      -2.53202025      -0.09245153        1 
H       2.40379013      -1.52736381      -1.54142852        1 
H      -2.32066919       3.51230963      -1.03125952        1 
H      -0.75630567       3.86937811      -0.23441593        1 
H      -3.80287413       0.84673406       1.68424233        1 
H      -2.43917848       1.15784632       2.80464757        1 
H      -1.24888010      -2.98433405       0.07111645        1 
C       1.98929667      -0.11922106       1.11873306        6 
O       3.16219974       0.28671819       0.43872134        8 
H       2.23685318      -0.76282602       1.97499478        1 
H       1.43167805       0.74725879       1.49505901        1 
C       3.78005892       1.42673095       1.00494033        6 
H       4.67047511       1.63318556       0.41082568        1 
H       4.07913020       1.24891161       2.04784716        1 
H       3.11143784       2.29517463       0.95956606        1 
