36
Lattice="0.0 0.0 0.0 0.0 0.0 0.0 0.0 0.0 0.0" Properties=species:S:1:pos:R:3:Z:I:1 pbc="F F F"
C      -1.00504229      -0.83483824      -0.61933535        6 
C       0.32011667      -0.01525150      -0.69706950        6 
C      -2.06410712      -0.24094397       0.28774073        6 
C       0.20016402       1.46816329      -0.38346575        6 
O      -3.29872003      -0.54713083      -0.17391955        8 
O      -1.86942579       0.35310739       1.31787616        8 
O      -0.96442605       1.94345669      -0.88351907        8 
O       1.05553379       2.18295862       0.07247478        8 
C      -1.21353259       3.34633613      -0.68870593        6 
C      -4.39946909      -0.11547214       0.64718421        6 
C      -0.47915288      -2.13857210       0.05737672        6 
C       0.43311114      -2.90606455      -0.92418683        6 
C       1.74299662      -2.07120632      -0.83058591        6 
C       1.30850436      -0.92359716       0.11660349        6 
O       0.43567132      -1.61944056       1.02658904        8 
H      -1.44429843      -1.02518240      -1.59650944        1 
H       0.65080764      -0.00128026      -1.74043501        1 
H      -0.41830091       3.94367811      -1.13647900        1 
H      -4.37784016       0.96807325       0.77293312        1 
H       0.58356458      -3.93092009      -0.58221328        1 
H       0.01421616      -2.94542613      -1.93211661        1 
H       2.54414392      -2.64124161      -0.35770691        1 
H       2.10919856      -1.70730394      -1.79010349        1 
H      -2.16446242       3.54226767      -1.17958810        1 
H      -1.27957203       3.56934078       0.37729256        1 
H      -4.35375359      -0.59025611       1.62863781        1 
H      -5.29698746      -0.42235867       0.11454663        1 
H      -1.24589018      -2.73095743       0.55303391        1 
C       2.43654403      -0.27046968       0.88353171        6 
O       3.36771088       0.21485681      -0.06917082        8 
H       2.90231101      -1.02808773       1.53052366        1 
H       2.05316021       0.53977799       1.50864832        1 
C       4.25675051       1.17712890       0.46886951        6 
H       4.92772857       1.47773118      -0.33650502        1 
H       4.85221599       0.75540782       1.29114727        1 
H       3.70685993       2.05382976       0.83043342        1 
