36
Lattice="0.0 0.0 0.0 0.0 0.0 0.0 0.0 0.0 0.0" Properties=species:S:1:pos:R:3:Z:I:1 pbc="F F F"
C      -1.43193301      -0.54862472      -0.88951684        6 
C       0.06470255      -0.10747797      -0.84163119        6 
C      -2.51869528       0.25225850      -0.18370520        6 
C       0.38985986       1.35600639      -0.59584071        6 
O      -2.22720849       0.57435006       1.07711139        8 
O      -3.60578679       0.43128105      -0.68912183        8 
O       1.52529590       1.66902733      -1.26234054        8 
O      -0.22231419       2.16095163       0.05964919        8 
C       2.00402016       3.01389092      -1.09788411        6 
C      -3.23608492       1.29964817       1.79766481        6 
C      -1.30356413      -1.92819641      -0.17150847        6 
C      -0.43696118      -2.89999488      -1.01284510        6 
C       1.00351069      -2.42122099      -0.65506202        6 
C       0.68124243      -1.15933051       0.17469135        6 
O      -0.45234749      -1.60174295       0.93089394        8 
H      -1.77476258      -0.65695629      -1.91746119        1 
H       0.49891988      -0.31504489      -1.81839822        1 
H       2.20166233       3.22473916      -0.04542819        1 
H      -4.15760520       0.71829343       1.85968303        1 
H      -0.60613647      -3.93132929      -0.70147554        1 
H      -0.66021799      -2.83098590      -2.07969058        1 
H       1.51774252      -3.14831035      -0.02389943        1 
H       1.63248831      -2.21075505      -1.51936818        1 
H       2.92298276       3.06648216      -1.67749349        1 
H       1.27095894       3.73033114      -1.47262759        1 
H      -3.44026607       2.25083681       1.30377045        1 
H      -2.81764305       1.46646028       2.78748270        1 
H      -2.24399065      -2.33428133       0.19516690        1 
C       1.74810907      -0.68237798       1.13684795        6 
O       2.95421995      -0.50425259       0.41865245        8 
H       1.86836097      -1.44015011       1.92415322        1 
H       1.42974389       0.25395324       1.61655151        1 
C       3.96451905       0.12363521       1.18215778        6 
H       4.84638808       0.20112708       0.54610136        1 
H       4.21695571      -0.46172094       2.07751643        1 
H       3.65791679       1.13114918       1.49708437        1 
