36
Lattice="0.0 0.0 0.0 0.0 0.0 0.0 0.0 0.0 0.0" Properties=species:S:1:pos:R:3:Z:I:1 pbc="F F F"
C      -1.07315395      -0.96579203      -0.83393841        6 
C       0.20323063      -0.08957524      -0.81576091        6 
C      -2.20411438      -0.62620787       0.13034521        6 
C       0.07190183       1.42332476      -0.76148260        6 
O      -1.86166762       0.24570359       1.08969152        8 
O      -3.26221896      -1.21222942       0.11152717        8 
O      -1.19763778       1.82255162      -0.98224555        8 
O       1.00558610       2.18937564      -0.77660728        8 
C      -1.40134468       3.23511853      -1.15812940        6 
C      -2.83973840       0.47003061       2.11912571        6 
C      -0.45664434      -2.27653978      -0.24656212        6 
C       0.66995563      -2.83165129      -1.15120541        6 
C       1.87582427      -1.93523190      -0.73727418        6 
C       1.16053045      -0.89219239       0.14861770        6 
O       0.25533993      -1.74264287       0.88172950        8 
H      -1.50235883      -1.09700575      -1.82592136        1 
H       0.64439819      -0.18146729      -1.81555601        1 
H      -0.80770191       3.60656066      -1.99477736        1 
H      -3.05978088      -0.46122669       2.64335385        1 
H       0.85349833      -3.88369665      -0.93054808        1 
H       0.41854562      -2.75144488      -2.21130211        1 
H       2.59523263      -2.49132226      -0.13440867        1 
H       2.40641110      -1.48398874      -1.57481574        1 
H      -2.46440677       3.34959617      -1.35850353        1 
H      -1.12204333       3.77604253      -0.25265538        1 
H      -3.76136773       0.86744876       1.69081555        1 
H      -2.38761570       1.19249492       2.79507624        1 
H      -1.19629070      -2.99941277       0.08823306        1 
C       2.03330132      -0.11216974       1.10850655        6 
O       3.17964639       0.32630756       0.40242419        8 
H       2.31739825      -0.77384155       1.93945184        1 
H       1.47665288       0.73628203       1.52273015        1 
C       3.79717092       1.46266835       0.97747637        6 
H       4.66821534       1.69470101       0.36412823        1 
H       4.12839197       1.26440962       2.00693718        1 
H       3.11439501       2.32056263       0.97031099        1 
