36
Lattice="0.0 0.0 0.0 0.0 0.0 0.0 0.0 0.0 0.0" Properties=species:S:1:pos:R:3:Z:I:1 pbc="F F F"
C      -1.41260695      -0.26711479      -0.76627485        6 
C       0.10488557       0.04860137      -0.78404331        6 
C      -2.29826156       0.41553039       0.26744179        6 
C       0.59068108       1.47144301      -0.56093664        6 
O      -3.59774049       0.21667269      -0.09320304        8 
O      -1.97332708       1.00603489       1.25790621        8 
O       1.82597083       1.58738597      -1.11148455        8 
O       0.03112631       2.38882475      -0.02251315        8 
C       2.47022805       2.86011433      -0.94857863        6 
C      -4.58428579       0.73090999       0.81793112        6 
C      -1.32561090      -1.75378515      -0.28699356        6 
C      -0.50228011      -2.63147146      -1.26446484        6 
C       0.95926196      -2.29703834      -0.83398580        6 
C       0.69593326      -1.11844864       0.12511951        6 
O      -0.45345180      -1.60198040       0.83914273        8 
H      -1.87304531      -0.16738636      -1.74890141        1 
H       0.44728304      -0.16149453      -1.79869417        1 
H       2.57560050       3.10446886       0.11009135        1 
H      -4.46017320       1.80694734       0.94844927        1 
H      -0.73440048      -3.68709838      -1.11947358        1 
H      -0.70868172      -2.38478519      -2.30831263        1 
H       1.40983644      -3.12324928      -0.28142148        1 
H       1.61958792      -2.03199935      -1.65884595        1 
H       3.44717732       2.75214020      -1.41485551        1 
H       1.89591395       3.64873229      -1.43815363        1 
H      -4.49989498       0.24107972       1.78981851        1 
H      -5.54651828       0.50861097       0.36092596        1 
H      -2.27646390      -2.17365281       0.03238801        1 
C       1.78032114      -0.77589010       1.12430894        6 
O       3.01901859      -0.70308091       0.44389426        8 
H       1.80243828      -1.56158963       1.89326148        1 
H       1.54409792       0.17395001       1.62394853        1 
C       4.04815851      -0.13802747       1.22950527        6 
H       4.94737411      -0.11667369       0.61339790        1 
H       4.24540852      -0.73438822       2.13180854        1 
H       3.79728453       0.88738812       1.53538438        1 
