36
Lattice="0.0 0.0 0.0 0.0 0.0 0.0 0.0 0.0 0.0" Properties=species:S:1:pos:R:3:Z:I:1 pbc="F F F"
C      -0.98073086      -0.87367130      -0.60900831        6 
C       0.33766410      -0.05117849      -0.75962253        6 
C      -2.26212437      -0.06531063      -0.61984192        6 
C       0.30676282       1.40528776      -0.32773977        6 
O      -3.18644375      -0.56373047       0.22456843        8 
O      -2.46289436       0.87508909      -1.34876945        8 
O      -0.58884005       1.64694896       0.64529926        8 
O       1.09203090       2.23234733      -0.72704530        8 
C      -0.65773929       2.99981402       1.12482288        6 
C      -4.46010207       0.10844652       0.23356225        6 
C      -0.66465304      -1.80659808       0.59706885        6 
C       0.13929757      -3.00571962       0.06535004        6 
C       1.45991395      -2.29497738      -0.34701579        6 
C       1.24647469      -0.86730825       0.23450183        6 
O       0.34198183      -1.08754558       1.32731704        8 
H      -1.08625867      -1.49235306      -1.50808486        1 
H       0.73988927      -0.06889211      -1.76947201        1 
H      -0.96323333       3.66873157       0.31879429        1 
H      -4.92528396       0.05923014      -0.75211084        1 
H       0.31015851      -3.72187126       0.87062129        1 
H      -0.35324451      -3.52634431      -0.75874377        1 
H       2.33566414      -2.76000897       0.10713787        1 
H       1.62423356      -2.27091848      -1.42449800        1 
H      -1.40261313       2.98854074       1.91750597        1 
H       0.31105152       3.31834596       1.51197967        1 
H      -4.33432426       1.15348956       0.51931195        1 
H      -5.06121373      -0.42103156       0.96940241        1 
H      -1.50674430      -2.02675608       1.24494535        1 
C       2.50855809      -0.19156592       0.72636254        6 
O       3.38574100      -0.08773550      -0.37804626        8 
H       2.95080100      -0.80240397       1.52703114        1 
H       2.28095965       0.79668421       1.14389392        1 
C       4.43658983       0.84010791      -0.17621950        6 
H       5.04549780       0.83233928      -1.08025764        1 
H       5.06491229       0.55742983       0.68050858        1 
H       4.04034246       1.85064211      -0.01772710        1 
