36
Lattice="0.0 0.0 0.0 0.0 0.0 0.0 0.0 0.0 0.0" Properties=species:S:1:pos:R:3:Z:I:1 pbc="F F F"
C      -1.38908458      -0.88447525      -0.77931715        6 
C       0.03639070      -0.26418807      -0.87211343        6 
C      -2.39988614      -0.20367413       0.14661281        6 
C       0.04177983       1.24539427      -1.04897600        6 
O      -1.98948646       0.97172056       0.64321709        8 
O      -3.42338549      -0.74542738       0.49184238        8 
O       1.04425874       1.87834118      -0.41730308        8 
O      -0.76937438       1.81327479      -1.73967920        8 
C       1.10747665       3.30251557      -0.61814881        6 
C      -2.86000217       1.59150665       1.60732361        6 
C      -1.02550052      -2.19977616      -0.03698214        6 
C      -0.03131756      -3.06449832      -0.84285980        6 
C       1.32317407      -2.36573353      -0.52831944        6 
C       0.82779093      -1.10124782       0.21005261        6 
O      -0.21907907      -1.65954878       1.03015373        8 
H      -1.85659412      -1.03911577      -1.75145110        1 
H       0.43356500      -0.57569883      -1.84512392        1 
H       0.17951242       3.77434949      -0.29250681        1 
H      -2.98060139       0.94551695       2.47814686        1 
H      -0.04542251      -4.09576498      -0.48838194        1 
H      -0.27245272      -3.07525810      -1.90822368        1 
H       1.92964456      -2.96617844       0.15208050        1 
H       1.92435236      -2.13468548      -1.40724647        1 
H       1.94642767       3.64258922      -0.01476220        1 
H       1.27603004       3.53230680      -1.67118575        1 
H      -3.83689739       1.78885147       1.16449458        1 
H      -2.36864619       2.52200342       1.88254789        1 
H      -1.88474170      -2.71926262       0.37600332        1 
C       1.85399648      -0.43042416       1.09520860        6 
O       3.00666879      -0.17973701       0.30953104        8 
H       2.09311869      -1.11377374       1.92316421        1 
H       1.45599669       0.49854309       1.51519140        1 
C       3.92781784       0.68362535       0.94167757        6 
H       4.77240829       0.80777308       0.26323006        1 
H       4.29154528       0.26415626       1.89078626        1 
H       3.47639432       1.66516577       1.13991867        1 
