36
Lattice="0.0 0.0 0.0 0.0 0.0 0.0 0.0 0.0 0.0" Properties=species:S:1:pos:R:3:Z:I:1 pbc="F F F"
C      -1.39966616      -0.36589300      -0.80288447        6 
C       0.10153742       0.00114330      -0.82814839        6 
C      -2.21055739       0.35657761       0.26999032        6 
C       0.41569154       1.48614442      -0.78419748        6 
O      -3.50408647      -0.04422198       0.18927314        8 
O      -1.81649857       1.15862671       1.07226135        8 
O       1.73310759       1.70839244      -0.59904765        8 
O      -0.38683025       2.36750839      -0.95711289        8 
C       2.14357596       3.08746895      -0.61657980        6 
C      -4.40289727       0.53346468       1.15287977        6 
C      -1.26837365      -1.83000003      -0.28360259        6 
C      -0.40909744      -2.71044149      -1.22316540        6 
C       1.03611758      -2.30828235      -0.79976410        6 
C       0.73335751      -1.10310810       0.11752100        6 
O      -0.40555103      -1.60746330       0.84516508        8 
H      -1.89904483      -0.27901169      -1.76716110        1 
H       0.45681938      -0.24348139      -1.83700390        1 
H       1.65217263       3.64090359       0.18521765        1 
H      -4.41005360       1.62066693       1.06348181        1 
H      -0.60269771      -3.76794349      -1.03985317        1 
H      -0.62015099      -2.51189361      -2.27652770        1 
H       1.51317075      -3.09720808      -0.21643080        1 
H       1.69216104      -2.05233480      -1.63123331        1 
H       3.22125374       3.06898104      -0.46875990        1 
H       1.89526867       3.54828416      -1.57380086        1 
H      -4.10396935       0.25824172       2.16575283        1 
H      -5.38274070       0.12264202       0.91835517        1 
H      -2.20484709      -2.26966468       0.04827579        1 
C       1.81463245      -0.71974231       1.10538421        6 
O       3.05845814      -0.70457478       0.42876862        8 
H       1.82064370      -1.47054028       1.90872133        1 
H       1.59578858       0.25717789       1.55145358        1 
C       4.08171075      -0.07815587       1.17309247        6 
H       4.98432546      -0.10070222       0.56168825        1 
H       4.27655843      -0.60504521       2.11840861        1 
H       3.82467995       0.96585032       1.39889899        1 
