36
Lattice="0.0 0.0 0.0 0.0 0.0 0.0 0.0 0.0 0.0" Properties=species:S:1:pos:R:3:Z:I:1 pbc="F F F"
C      -0.80264824       0.94931550       0.63111301        6 
C       0.37482860      -0.09222856       0.68695950        6 
C      -2.22763260       0.43193129       0.66876424        6 
C       0.12689822      -1.47282810       0.07396265        6 
O      -2.88346679       0.63058511      -0.49243609        8 
O      -2.73397049      -0.06064940       1.64639205        8 
O      -1.17568734      -1.78970845       0.00001546        8 
O       0.99458227      -2.21552187      -0.31780368        8 
C      -1.49553933      -3.07212627      -0.56794325        6 
C      -4.23784107       0.15044023      -0.53899280        6 
C      -0.36232939       1.87880718      -0.54155230        6 
C       0.53445102       2.96306405       0.06777390        6 
C       1.71638447       2.07681729       0.55045390        6 
C       1.42115125       0.71615219      -0.16102664        6 
O       0.59181585       1.09210993      -1.27704642        8 
H      -0.74320181       1.51492045       1.56482252        1 
H       0.71822169      -0.25867503       1.70882220        1 
H      -1.01399343      -3.87013511      -0.00183691        1 
H      -4.84520850       0.63741718       0.22532206        1 
H       0.85030357       3.66737647      -0.70401247        1 
H       0.05017755       3.52303567       0.87075248        1 
H       2.68192605       2.46736191       0.22925170        1 
H       1.75613277       1.96268241       1.63467873        1 
H      -2.57797615      -3.15470118      -0.49963063        1 
H      -1.16849393      -3.11655708      -1.60769535        1 
H      -4.26104890      -0.92882486      -0.37963953        1 
H      -4.60030614       0.39874264      -1.53425300        1 
H      -1.16020945       2.20057720      -1.20275814        1 
C       2.67767795       0.02183389      -0.64582620        6 
O       3.40122574      -0.37631362       0.50668257        8 
H       3.26117949       0.73893916      -1.24234297        1 
H       2.43418496      -0.83663310      -1.27216768        1 
C       4.42895624      -1.30695876       0.22030178        6 
H       4.90722677      -1.55751764       1.16769196        1 
H       5.18216405      -0.87912575      -0.45690209        1 
H       4.01646729      -2.21813426      -0.23045270        1 
