36
Lattice="0.0 0.0 0.0 0.0 0.0 0.0 0.0 0.0 0.0" Properties=species:S:1:pos:R:3:Z:I:1 pbc="F F F"
C      -0.86185936       1.04352025       0.31626368        6 
C       0.23740868      -0.03353496       0.58420484        6 
C      -2.30890041       0.62609937       0.17185589        6 
C       0.01896222      -1.40254007      -0.06553316        6 
O      -2.69967597      -0.09777761       1.24299639        8 
O      -3.06671468       1.01841586      -0.68072682        8 
O      -1.22334076      -1.56856817      -0.55342489        8 
O       0.88728234      -2.22658415      -0.22591334        8 
C      -1.46713286      -2.77737684      -1.29519895        6 
C      -4.06778588      -0.53717634       1.24031365        6 
C      -0.25636329       1.87433641      -0.84726554        6 
C       0.59898243       2.97429794      -0.20642180        6 
C       1.67438500       2.08922025       0.48741347        6 
C       1.42329185       0.69137558      -0.16521509        6 
O       0.75770682       1.01375024      -1.40186684        8 
H      -0.89691552       1.67446284       1.21160219        1 
H       0.44543332      -0.18486035       1.64279613        1 
H      -1.32866986      -3.65063845      -0.65609399        1 
H      -4.25392030      -1.18794907       0.38373100        1 
H       1.04138357       3.60509190      -0.97906742        1 
H       0.04133310       3.60985092       0.48472897        1 
H       2.68720904       2.42750546       0.26913706        1 
H       1.57004592       2.05245688       1.57286850        1 
H      -2.49868132      -2.70401185      -1.63223698        1 
H      -0.78816274      -2.84033302      -2.14619146        1 
H      -4.74731844       0.31521831       1.19611047        1 
H      -4.19980499      -1.08603999       2.17025780        1 
H      -0.96603853       2.16246984      -1.61715484        1 
C       2.70391223      -0.06873092      -0.44185004        6 
O       3.27989752      -0.39324136       0.81207724        8 
H       3.37408517       0.58538073      -1.01946457        1 
H       2.50855991      -0.96828221      -1.02766495        1 
C       4.32120594      -1.34643652       0.70710382        6 
H       4.69342513      -1.52727459       1.71596139        1 
H       5.14648254      -0.97279130       0.08402480        1 
H       3.94863195      -2.28748423       0.28362960        1 
