36
Lattice="0.0 0.0 0.0 0.0 0.0 0.0 0.0 0.0 0.0" Properties=species:S:1:pos:R:3:Z:I:1 pbc="F F F"
C      -0.96593044       1.28596868       0.53761395        6 
C       0.24282303       0.30793967       0.81884354        6 
C      -2.17819662       0.68004298      -0.15653734        6 
C      -0.09120208      -1.16714069       0.73194203        6 
O      -2.73024686      -0.28496218       0.60523274        8 
O      -2.62764611       1.02919750      -1.21854958        8 
O      -0.18152088      -1.60015415      -0.54440310        8 
O      -0.33424607      -1.86137990       1.68627528        8 
C      -0.58149737      -2.97011131      -0.71754088        6 
C      -3.87343351      -0.96116226       0.05234280        6 
C      -0.28009477       2.32954233      -0.37216318        6 
C       0.73692597       3.15566252       0.44433789        6 
C       1.91681136       2.14937137       0.56624030        6 
C       1.32773358       0.90586694      -0.14678710        6 
O       0.55353229       1.50126115      -1.19713227        8 
H      -1.32114668       1.71020786       1.47942959        1 
H       0.56325258       0.43611652       1.85103299        1 
H      -1.53440803      -3.15378803      -0.21934142        1 
H      -3.62379769      -1.39821193      -0.91565310        1 
H       1.02911943       4.05018268      -0.10674024        1 
H       0.33590230       3.47084748       1.41012858        1 
H       2.79316238       2.49741241       0.01682334        1 
H       2.22023970       1.94149696       1.59233685        1 
H      -0.67359283      -3.11172132      -1.79229506        1 
H       0.17181494      -3.64305662      -0.30402083        1 
H      -4.70526114      -0.26621529      -0.07296843        1 
H      -4.12540270      -1.73584851       0.77309894        1 
H      -0.96899973       2.88796551      -0.99898226        1 
C       2.33695280      -0.05726807      -0.73780137        6 
O       2.89586162      -0.79808945       0.33532175        8 
H       3.11527024       0.50846440      -1.26919824        1 
H       1.83809129      -0.72073882      -1.45092531        1 
C       3.78018173      -1.81526789      -0.09436506        6 
H       4.13755855      -2.32876717       0.79818980        1 
H       4.63908983      -1.39750759      -0.63772668        1 
H       3.26877542      -2.53719915      -0.74626937        1 
