36
Lattice="0.0 0.0 0.0 0.0 0.0 0.0 0.0 0.0 0.0" Properties=species:S:1:pos:R:3:Z:I:1 pbc="F F F"
C      -1.25240463      -0.73686725      -0.56061209        6 
C       0.15341765      -0.04702431      -0.68739444        6 
C      -2.31998227      -0.10715090       0.31701920        6 
C       0.31737517       1.37916000      -0.19648234        6 
O      -3.49261295      -0.05937479      -0.37639057        8 
O      -2.21399635       0.26644035       1.45205472        8 
O       0.73776342       2.16313710      -1.22193585        8 
O       0.09425614       1.80628494       0.90578096        8 
C       0.97366183       3.54220036      -0.89624089        6 
C      -4.62264706       0.46142904       0.34617249        6 
C      -0.83294112      -2.10347232       0.06563337        6 
C      -0.04080811      -2.93428422      -0.97169211        6 
C       1.35321779      -2.24122696      -0.90960984        6 
C       1.06478057      -1.08977312       0.08127618        6 
O       0.16307589      -1.70933684       1.00602975        8 
H      -1.68621515      -0.87443991      -1.54961191        1 
H       0.43490153      -0.03483640      -1.73744149        1 
H       1.75600403       3.62689042      -0.13965072        1 
H      -4.42709291       1.48274614       0.67662037        1 
H       0.01615771      -3.97791581      -0.65935221        1 
H      -0.49727949      -2.90429235      -1.96321054        1 
H       2.10699800      -2.90586475      -0.48395214        1 
H       1.71618728      -1.88549564      -1.87362478        1 
H       1.29088222       4.01026177      -1.82572748        1 
H       0.06251320       4.01068129      -0.52023336        1 
H      -4.83976957      -0.15884397       1.21772679        1 
H      -5.45289488       0.43747379      -0.35661264        1 
H      -1.63543283      -2.62959065       0.57894896        1 
C       2.24568134      -0.53590508       0.84806339        6 
O       3.06689516       0.16262395      -0.07287666        8 
H       2.79647634      -1.36370167       1.31684752        1 
H       1.88657061       0.13220300       1.63943752        1 
C       4.12836727       0.85997062       0.55132823        6 
H       4.68954598       1.36279818      -0.23667767        1 
H       4.79924597       0.17453398       1.08760470        1 
H       3.74938713       1.60821237       1.26094674        1 
