36
Lattice="0.0 0.0 0.0 0.0 0.0 0.0 0.0 0.0 0.0" Properties=species:S:1:pos:R:3:Z:I:1 pbc="F F F"
C      -0.98378564      -1.03187812      -0.77207927        6 
C       0.33530860      -0.17486224      -0.86154307        6 
C      -2.24777681      -0.22031218      -0.54122667        6 
C       0.20864291       1.31981729      -0.63526343        6 
O      -2.76341876      -0.37277667       0.68889708        8 
O      -2.77328552       0.43528681      -1.41048340        8 
O      -0.57820068       1.61785521       0.41827609        8 
O       0.78194686       2.15329754      -1.29223580        8 
C      -0.78603941       3.01650726       0.68096882        6 
C      -3.95330768       0.38359007       0.96898232        6 
C      -0.61032021      -2.04349315       0.34357727        6 
C       0.36390985      -3.09207431      -0.22870906        6 
C       1.66836486      -2.25227128      -0.34774652        6 
C       1.20907105      -0.88977107       0.23262538        6 
O       0.23578054      -1.27129063       1.21055197        8 
H      -1.14819506      -1.53083215      -1.72876338        1 
H       0.80166841      -0.27141207      -1.83904630        1 
H      -1.29358410       3.48532874      -0.16360107        1 
H      -4.75737433       0.10244614       0.28716191        1 
H       0.48382689      -3.91404272       0.47862087        1 
H       0.02577381      -3.51026382      -1.17905764        1 
H       2.46901193      -2.66395226       0.26842170        1 
H       2.04475492      -2.16132047      -1.36608681        1 
H      -1.40726734       3.05311627       1.57318905        1 
H       0.16591298       3.52018451       0.85459373        1 
H      -3.75420961       1.45143809       0.86524432        1 
H      -4.21557136       0.14055876       1.99624589        1 
H      -1.45336709      -2.42894131       0.90843386        1 
C       2.29959114      -0.06051267       0.87672853        6 
O       3.28772140       0.17737885      -0.10767896        8 
H       2.71583285      -0.61282735       1.73164850        1 
H       1.88797115       0.88369776       1.25779489        1 
C       4.22721003       1.16581864       0.26974381        6 
H       4.93628290       1.26273715      -0.55222293        1 
H       4.76968697       0.87870249       1.18158598        1 
H       3.73642706       2.13418270       0.43436072        1 
