36
Lattice="0.0 0.0 0.0 0.0 0.0 0.0 0.0 0.0 0.0" Properties=species:S:1:pos:R:3:Z:I:1 pbc="F F F"
C      -1.05280964      -0.73779011      -0.68055655        6 
C       0.31802150      -0.00224804      -0.71651271        6 
C      -2.06247202      -0.13809203       0.28021610        6 
C       0.28232237       1.48766828      -0.41426287        6 
O      -3.30304174      -0.58808558      -0.01816559        8 
O      -1.82526646       0.58553724       1.21358662        8 
O      -0.82158623       2.03343101      -0.97623099        8 
O       1.16613905       2.14973620       0.06678410        8 
C      -0.98597955       3.45072250      -0.79967302        6 
C      -4.35723776      -0.16596695       0.86717596        6 
C      -0.60560770      -2.10218110      -0.07059236        6 
C       0.30756374      -2.85789033      -1.06105307        6 
C       1.65668453      -2.10822823      -0.86173012        6 
C       1.23375271      -0.97708815       0.10773244        6 
O       0.29512724      -1.67124566       0.95513767        8 
H      -1.51375687      -0.85019312      -1.66030209        1 
H       0.67304737      -0.00639142      -1.75242502        1 
H      -0.14129388       3.99291335      -1.22713974        1 
H      -4.44050847       0.92188111       0.86879000        1 
H       0.38570779      -3.90918753      -0.78063804        1 
H      -0.06809178      -2.81176405      -2.08566903        1 
H       2.39574317      -2.74320596      -0.37093879        1 
H       2.09565203      -1.72852843      -1.78386324        1 
H      -1.90719041       3.70253225      -1.32089707        1 
H      -1.07040580       3.68745690       0.26207288        1 
H      -4.16385354      -0.51188860       1.88376561        1 
H      -5.26485204      -0.61867992       0.47392592        1 
H      -1.41380689      -2.68557906       0.36550327        1 
C       2.35248988      -0.39607652       0.94251783        6 
O       3.35698233       0.04899289       0.04703708        8 
H       2.74232724      -1.18476045       1.60285905        1 
H       1.98066563       0.42686423       1.55825723        1 
C       4.26305832       0.96138818       0.64062405        6 
H       4.98324056       1.24198121      -0.12869533        1 
H       4.80077145       0.50122217       1.48212323        1 
H       3.73802064       1.85775158       0.99054600        1 
