36
Lattice="0.0 0.0 0.0 0.0 0.0 0.0 0.0 0.0 0.0" Properties=species:S:1:pos:R:3:Z:I:1 pbc="F F F"
C      -0.99503283       1.15651851       0.51485987        6 
C       0.23631225       0.20509619       0.77183795        6 
C      -2.23197689       0.53911596      -0.11673532        6 
C       0.08574671      -1.28685140       0.54602257        6 
O      -3.03893864       0.03966466       0.85186918        8 
O      -2.47451444       0.45235086      -1.29087760        8 
O      -0.63709670      -1.58224171      -0.54654417        8 
O       0.61326738      -2.12338110       1.23991102        8 
C      -0.78494774      -2.97522584      -0.86859734        6 
C      -4.20866532      -0.66127776       0.39321057        6 
C      -0.35759564       2.19101069      -0.45227881        6 
C       0.61124025       3.10270713       0.32787309        6 
C       1.82457569       2.14954875       0.52898857        6 
C       1.31720955       0.86455172      -0.17183238        6 
O       0.52587799       1.38164772      -1.24239771        8 
H      -1.30197350       1.60907090       1.45812274        1 
H       0.55786377       0.28898031       1.80782850        1 
H      -1.23800412      -3.51524331      -0.03569057        1 
H      -3.92304013      -1.48801180      -0.25913178        1 
H       0.88207763       3.97075058      -0.27464672        1 
H       0.18290616       3.46192624       1.26592253        1 
H       2.71345132       2.51905903       0.01532410        1 
H       2.08765665       1.97892796       1.57228163        1 
H      -1.42903390      -2.99873775      -1.74464387        1 
H       0.18619314      -3.41924720      -1.09466888        1 
H      -4.86968547       0.01306030      -0.15376500        1 
H      -4.69830144      -1.03112608       1.29151221        1 
H      -1.06889230       2.68746986      -1.10670049        1 
C       2.39563389      -0.04771728      -0.71570474        6 
O       3.23792597      -0.40410763       0.36336209        8 
H       2.95650978       0.48569503      -1.49677846        1 
H       1.94728461      -0.93655086      -1.17964512        1 
C       4.07745448      -1.50669715       0.07729191        6 
H       4.69162185      -1.67843044       0.96111942        1 
H       4.73229200      -1.30195528      -0.78158624        1 
H       3.48488359      -2.40783122      -0.12764105        1 
