36
Lattice="0.0 0.0 0.0 0.0 0.0 0.0 0.0 0.0 0.0" Properties=species:S:1:pos:R:3:Z:I:1 pbc="F F F"
C      -0.99485666       1.14798010       0.51416570        6 
C       0.23556433       0.19429462       0.76668123        6 
C      -2.23787566       0.53903407      -0.11384956        6 
C       0.09652887      -1.29736295       0.52936076        6 
O      -3.04646316       0.04629865       0.85671663        8 
O      -2.48500519       0.45661735      -1.28737037        8 
O      -0.70043531      -1.59790759      -0.50793619        8 
O       0.69760647      -2.12913052       1.16736984        8 
C      -0.83574827      -2.98993941      -0.83985290        6 
C      -4.22028508      -0.64882763       0.40020364        6 
C      -0.35897290       2.18316200      -0.45344102        6 
C       0.60822322       3.09648516       0.32616369        6 
C       1.82156031       2.14434553       0.53028981        6 
C       1.31827684       0.85914380      -0.17329189        6 
O       0.52569184       1.37477103      -1.24357623        8 
H      -1.29653533       1.60094344       1.45896886        1 
H       0.55831224       0.27253747       1.80295840        1 
H      -1.24115500      -3.54723302       0.00621211        1 
H      -3.93877766      -1.48031924      -0.24792787        1 
H       0.87919999       3.96386804      -0.27725461        1 
H       0.17845605       3.45662314       1.26320720        1 
H       2.71217896       2.51492956       0.02057274        1 
H       2.08115724       1.97242119       1.57421112        1 
H      -1.51812195      -3.01612782      -1.68634659        1 
H       0.13234913      -3.41244133      -1.11403757        1 
H      -4.87645558       0.02691321      -0.15086025        1 
H      -4.71326353      -1.01144257       1.29963170        1 
H      -1.07091300       2.67796784      -1.10835004        1 
C       2.40245621      -0.04529618      -0.71963281        6 
O       3.26554504      -0.37494185       0.35088249        8 
H       2.94366180       0.48760211      -1.51493828        1 
H       1.96311515      -0.94716020      -1.16674297        1 
C       4.10766962      -1.47738926       0.07164347        6 
H       4.73780373      -1.62788226       0.94810799        1 
H       4.74686742      -1.28463479      -0.80178347        1 
H       3.51764861      -2.38582437      -0.10558812        1 
