36
Lattice="0.0 0.0 0.0 0.0 0.0 0.0 0.0 0.0 0.0" Properties=species:S:1:pos:R:3:Z:I:1 pbc="F F F"
C      -0.97459196       1.04057858       0.78736074        6 
C       0.25724817       0.08261838       0.77379888        6 
C      -2.20332951       0.63137160      -0.00494226        6 
C      -0.04615364      -1.38701884       0.54215618        6 
O      -1.92224929      -0.18580388      -1.03528261        8 
O      -3.30236862       1.08934888       0.20210972        8 
O      -1.19710076      -1.71595603       1.17633723        8 
O       0.67869134      -2.20772440       0.03931822        8 
C      -1.58958387      -3.09668182       1.10660842        6 
C      -3.02190853      -0.53343751      -1.89365283        6 
C      -0.35563350       2.27238364       0.05513682        6 
C       0.72685335       2.92761896       0.94058085        6 
C       1.91840807       1.94691929       0.73527599        6 
C       1.26478670       0.85345291      -0.14661175        6 
O       0.40193876       1.64288853      -0.98664968        8 
H      -1.31641802       1.28743362       1.79047243        1 
H       0.67472747       0.06274393       1.78583583        1 
H      -0.81777547      -3.73872634       1.53339838        1 
H      -3.45625992       0.36322300      -2.33766970        1 
H       0.96162090       3.92854131       0.57616239        1 
H       0.41045837       3.01457944       1.98221428        1 
H       2.73039104       2.42048731       0.18114490        1 
H       2.33066352       1.54774200       1.66154339        1 
H      -2.50965781      -3.16575386       1.68286493        1 
H      -1.76552263      -3.38729179       0.06918786        1 
H      -3.79146984      -1.06430231      -1.33041665        1 
H      -2.59624889      -1.17436613      -2.66255929        1 
H      -1.08846941       2.95008652      -0.37760145        1 
C       2.23239005       0.05874268      -0.99598451        6 
O       3.18442303      -0.51765035      -0.11834911        8 
H       2.72053810       0.74360017      -1.70459351        1 
H       1.70392714      -0.71236974      -1.56365293        1 
C       3.91054990      -1.58069178      -0.70762256        6 
H       4.60945324      -1.94575822       0.04562778        1 
H       4.47792526      -1.24014505      -1.58560579        1 
H       3.23775250      -2.39445577      -1.00316688        1 
