36
Lattice="0.0 0.0 0.0 0.0 0.0 0.0 0.0 0.0 0.0" Properties=species:S:1:pos:R:3:Z:I:1 pbc="F F F"
C      -1.14758551      -0.91690877      -0.80959945        6 
C       0.25926566      -0.23423534      -0.86275694        6 
C      -2.36905739      -0.24459988      -0.19646597        6 
C       0.41279555       1.27768727      -0.91205390        6 
O      -2.16636813       0.27448973       1.01919360        8 
O      -3.46603124      -0.33792565      -0.70340706        8 
O      -0.56347287       1.96693649      -0.29950819        8 
O       1.32895799       1.81389680      -1.48992109        8 
C      -0.46927768       3.40089259      -0.37562562        6 
C      -3.32389461       0.81473666       1.67542808        6 
C      -0.78602938      -2.13489446       0.10051209        6 
C       0.22592865      -3.06579004      -0.61262782        6 
C       1.56695771      -2.31277374      -0.36537570        6 
C       1.04400968      -1.01006953       0.27894390        6 
O      -0.00059962      -1.51178218       1.12131931        8 
H      -1.46368418      -1.23089375      -1.80306141        1 
H       0.71521049      -0.52683964      -1.80825685        1 
H      -0.48516761       3.72886488      -1.41593890        1 
H      -4.07736765       0.04003177       1.82736517        1 
H       0.22749888      -4.05407704      -0.15149720        1 
H      -0.00766543      -3.19083680      -1.67206699        1 
H       2.19374357      -2.84432808       0.35264723        1 
H       2.15331105      -2.13382600      -1.26555909        1 
H      -1.33984331       3.77443992       0.15908834        1 
H       0.45102594       3.74904158       0.09548075        1 
H      -3.75873473       1.62116153       1.08201019        1 
H      -2.96369793       1.19155488       2.63019143        1 
H      -1.64456752      -2.63244391       0.54706320        1 
C       2.03714668      -0.22043429       1.10367328        6 
O       3.18762629      -0.01342378       0.30934991        8 
H       2.27945477      -0.78988576       2.01262639        1 
H       1.59257846       0.73506484       1.41623036        1 
C       4.03254831       1.01158629       0.79500286        6 
H       4.87711656       1.07980454       0.10972383        1 
H       4.40427156       0.78458820       1.80437320        1 
H       3.50914813       1.97655773       0.81296872        1 
