36
Lattice="0.0 0.0 0.0 0.0 0.0 0.0 0.0 0.0 0.0" Properties=species:S:1:pos:R:3:Z:I:1 pbc="F F F"
C      -1.40582839      -0.35376657      -0.85389378        6 
C       0.10562300      -0.01531056      -0.86334447        6 
C      -2.19062912       0.39367276       0.23187234        6 
C       0.43662897       1.46746068      -0.88919479        6 
O      -3.39505951      -0.20163593       0.41037682        8 
O      -1.86678435       1.39757679       0.80759755        8 
O       1.69295812       1.72626389      -0.47756880        8 
O      -0.31728697       2.31493066      -1.29481758        8 
C       2.10102209       3.10469354      -0.55413868        6 
C      -4.26257320       0.41086810       1.38103819        6 
C      -1.30121232      -1.82026889      -0.34745455        6 
C      -0.41597290      -2.70933245      -1.25234851        6 
C       1.01715535      -2.32800177      -0.77345343        6 
C       0.69605064      -1.10852005       0.11719455        6 
O      -0.47286248      -1.59466503       0.81344475        8 
H      -1.89808221      -0.22660857      -1.81805220        1 
H       0.46549715      -0.29721536      -1.86167312        1 
H       1.46130873       3.72549968       0.07482086        1 
H      -4.45640268       1.45158786       1.11763852        1 
H      -0.63130509      -3.76464631      -1.08155483        1 
H      -0.58171164      -2.50465020      -2.31269881        1 
H       1.45540271      -3.11861263      -0.16234980        1 
H       1.71132294      -2.09125279      -1.57939792        1 
H       3.12874196       3.12140744      -0.19741244        1 
H       2.04726281       3.46233294      -1.58348714        1 
H      -3.81075352       0.36894055       2.37346691        1 
H      -5.18203975      -0.17025269       1.35531652        1 
H      -2.24685050      -2.25462240      -0.04117114        1 
C       1.75002158      -0.72729605       1.13442432        6 
O       3.00951623      -0.70737061       0.48707699        8 
H       1.73858395      -1.48300160       1.93331468        1 
H       1.51953883       0.24774539       1.57752709        1 
C       4.01305337      -0.07583134       1.25362568        6 
H       4.92779892      -0.08986956       0.66024034        1 
H       4.19324521      -0.60451553       2.20091472        1 
H       3.74343514       0.96517841       1.47735951        1 
