36
Lattice="0.0 0.0 0.0 0.0 0.0 0.0 0.0 0.0 0.0" Properties=species:S:1:pos:R:3:Z:I:1 pbc="F F F"
C      -1.19332014      -0.45602733      -0.85698336        6 
C       0.26355847       0.07751489      -0.77032227        6 
C      -2.10275466       0.03752071       0.28295121        6 
C       0.50940455       1.56042950      -0.54812487        6 
O      -3.07089561      -0.87166945       0.54400376        8 
O      -2.07255923       1.11487929       0.81945203        8 
O      -0.50977990       2.28268600      -1.05100801        8 
O       1.57068021       2.05004193      -0.24314543        8 
C      -0.35363589       3.71019454      -1.02401916        6 
C      -4.01748722      -0.50853864       1.56406234        6 
C      -0.88730102      -1.95083239      -0.55572730        6 
C       0.11799555      -2.57538729      -1.55262222        6 
C       1.48273425      -2.07618039      -0.98983524        6 
C       0.99152507      -1.05006299       0.05138514        6 
O      -0.10601742      -1.77739006       0.64658456        8 
H      -1.67730240      -0.25349366      -1.81317453        1 
H       0.65597540       0.00823192      -1.79315179        1 
H       0.53082525       4.01328779      -1.58696974        1 
H      -4.54346669       0.40749847       1.29070311        1 
H       0.04651016      -3.66336117      -1.53638757        1 
H      -0.06652667      -2.24518079      -2.57791344        1 
H       2.02447393      -2.87845978      -0.48608619        1 
H       2.14163368      -1.63475198      -1.73662200        1 
H      -1.25744134       4.10784564      -1.48039836        1 
H      -0.26521223       4.05825303       0.00619177        1 
H      -3.50855632      -0.36002543       2.51756566        1 
H      -4.70978419      -1.34543554       1.62715016        1 
H      -1.76162935      -2.55226535      -0.33532579        1 
C       1.98791277      -0.64916923       1.11938070        6 
O       3.22799635      -0.39302603       0.48621707        8 
H       2.08099921      -1.47921530       1.83470778        1 
H       1.63293432       0.23482832       1.65980494        1 
C       4.08160198       0.44352134       1.24522395        6 
H       4.99562408       0.57448098       0.66531227        1 
H       4.33457350      -0.01261695       2.21308773        1 
H       3.61648082       1.42209219       1.41116876        1 
