36
Lattice="0.0 0.0 0.0 0.0 0.0 0.0 0.0 0.0 0.0" Properties=species:S:1:pos:R:3:Z:I:1 pbc="F F F"
C      -0.96081850      -1.05995845      -0.70370580        6 
C       0.27668409      -0.08487786      -0.69390943        6 
C      -2.31392719      -0.61031470      -0.19141368        6 
C       0.00591944       1.32144258      -0.18224724        6 
O      -2.24195138       0.25874411       0.82422261        8 
O      -3.35329645      -1.05319397      -0.62397652        8 
O      -0.54419077       2.04820934      -1.18606065        8 
O       0.19205735       1.76261758       0.92138866        8 
C      -0.95020447       3.38420543      -0.84440575        6 
C      -3.48758110       0.69253327       1.39822184        6 
C      -0.41150665      -2.24133628       0.16714287        6 
C       0.57060654      -3.06879512      -0.68132376        6 
C       1.78147430      -2.09691464      -0.74849439        6 
C       1.29495441      -0.92111598       0.14570789        6 
O       0.44521575      -1.58265030       1.10120834        8 
H      -1.15726779      -1.40479887      -1.71795764        1 
H       0.63360102       0.03607873      -1.71534754        1 
H      -0.09564961       3.96933933      -0.50137582        1 
H      -4.02506061      -0.15521264       1.82541656        1 
H       0.82778974      -3.99005764      -0.15616593        1 
H       0.16475345      -3.33655808      -1.65841630        1 
H       2.67849306      -2.54480890      -0.31816623        1 
H       2.02452382      -1.76976397      -1.75949474        1 
H      -1.36156616       3.80661768      -1.75858848        1 
H      -1.70641570       3.35995042      -0.05753956        1 
H      -4.11123806       1.16755950       0.63917623        1 
H      -3.21070377       1.40307311       2.17362290        1 
H      -1.17663770      -2.80559105       0.69638347        1 
C       2.39658983      -0.16887599       0.86221598        6 
O       3.09283780       0.57999995      -0.12467930        8 
H       3.07001104      -0.88861956       1.34906690        1 
H       1.96821633       0.48916078       1.62098282        1 
C       4.04340988       1.46858482       0.43315653        6 
H       4.51758309       1.99481095      -0.39583198        1 
H       4.81285739       0.92662816       1.00059291        1 
H       3.55927091       2.19670130       1.09730296        1 
