36
Lattice="0.0 0.0 0.0 0.0 0.0 0.0 0.0 0.0 0.0" Properties=species:S:1:pos:R:3:Z:I:1 pbc="F F F"
C      -1.28894232      -0.85897403      -0.57067907        6 
C       0.06954391      -0.08520157      -0.68892121        6 
C      -2.40118653      -0.18667786       0.22567516        6 
C       0.04203593       1.37582017      -0.27230586        6 
O      -3.30626008       0.36149539      -0.61710021        8 
O      -2.50302976      -0.16830726       1.42359134        8 
O       1.20164253       1.97975323      -0.60904677        8 
O      -0.87535915       1.96435201       0.24255563        8 
C       1.30132961       3.37748698      -0.28304174        6 
C      -4.35983359       1.11405888       0.00935486        6 
C      -0.81910937      -2.13569097       0.17894751        6 
C       0.01623912      -3.02436520      -0.76622743        6 
C       1.36508363      -2.24890103      -0.79502622        6 
C       1.03833405      -1.03981026       0.11810928        6 
O       0.16153416      -1.61743108       1.08846706        8 
H      -1.68123000      -1.08344784      -1.56207738        1 
H       0.39385062      -0.06952188      -1.73077470        1 
H       1.21397784       3.52569914       0.79470726        1 
H      -3.93487093       1.93736224       0.58534029        1 
H       0.13843576      -4.02188994      -0.34183707        1 
H      -0.44271247      -3.13014751      -1.75134838        1 
H       2.17130588      -2.83052278      -0.34610998        1 
H       1.68545552      -1.94577630      -1.79138036        1 
H       2.28340367       3.68590366      -0.63478300        1 
H       0.51684118       3.94490509      -0.78602674        1 
H      -4.94894164       0.47517467       0.66961167        1 
H      -4.97404228       1.49009108      -0.80630221        1 
H      -1.60157386      -2.63612509       0.74335564        1 
C       2.23376937      -0.43506320       0.82492874        6 
O       3.23269440      -0.16559437      -0.14034811        8 
H       2.59428120      -1.16185845       1.56718319        1 
H       1.94781623       0.47867020       1.36110102        1 
C       4.30061047       0.60307977       0.37279464        6 
H       5.00797055       0.75632780      -0.44252684        1 
H       4.81132505       0.08676069       1.19826553        1 
H       3.94912012       1.57980302       0.73316122        1 
