36
Lattice="0.0 0.0 0.0 0.0 0.0 0.0 0.0 0.0 0.0" Properties=species:S:1:pos:R:3:Z:I:1 pbc="F F F"
C      -1.07262796      -0.95126822      -0.85308232        6 
C       0.25989885      -0.10237863      -0.78108909        6 
C      -2.27060684      -0.26176233      -0.21958025        6 
C       0.05111236       1.31353855      -0.28395280        6 
O      -2.36760331      -0.47826485       1.09651374        8 
O      -3.06534432       0.39304720      -0.85603882        8 
O       0.04509701       2.17146129      -1.32337840        8 
O      -0.12599520       1.65518826       0.86111723        8 
C      -0.24162753       3.54541706      -1.00683515        6 
C      -3.42025223       0.22388266       1.78100833        6 
C      -0.60911246      -2.24308472      -0.13156663        6 
C       0.39642305      -2.99827679      -1.03158898        6 
C       1.68762201      -2.15303323      -0.81923809        6 
C       1.15870948      -1.02958564       0.10684921        6 
O       0.21735095      -1.73833133       0.92298713        8 
H      -1.34757025      -1.12662258      -1.89232317        1 
H       0.68199765      -0.01739241      -1.77970275        1 
H       0.50244110       3.94072658      -0.31371457        1 
H      -4.39587601      -0.06685304       1.38794517        1 
H       0.52682337      -4.02209478      -0.67862670        1 
H       0.07391130      -3.04060281      -2.07422475        1 
H       2.45422631      -2.72587377      -0.29409188        1 
H       2.12242438      -1.77075837      -1.74295455        1 
H      -0.20172756       4.07465576      -1.95618148        1 
H      -1.23437131       3.63006779      -0.56235955        1 
H      -3.28564318       1.30001663       1.66462084        1 
H      -3.32288233      -0.06161791       2.82568904        1 
H      -1.41301537      -2.84219167       0.28858492        1 
C       2.17577185      -0.33933281       0.98865999        6 
O       2.96864662       0.48999194       0.15238012        8 
H       2.79648620      -1.09344388       1.49266130        1 
H       1.65403418       0.25396565       1.74650300        1 
C       3.85501662       1.31898778       0.88069143        6 
H       4.41243641       1.91007870       0.15379584        1 
H       4.56114123       0.72474991       1.47701165        1 
H       3.30454866       1.99225092       1.55126815        1 
