36
Lattice="0.0 0.0 0.0 0.0 0.0 0.0 0.0 0.0 0.0" Properties=species:S:1:pos:R:3:Z:I:1 pbc="F F F"
C      -1.01567933      -1.02642469      -0.78479959        6 
C       0.31873818      -0.19353284      -0.85673281        6 
C      -2.30565180      -0.29352492      -0.44280705        6 
C       0.28345576       1.31651432      -0.70202059        6 
O      -2.52982386      -0.19749600       0.87731070        8 
O      -3.11249427       0.04158027      -1.27952776        8 
O      -0.72252466       1.76209489       0.06964105        8 
O       1.11308402       2.04708541      -1.18903670        8 
C      -0.80289658       3.18667610       0.25451854        6 
C      -3.74216136       0.46867037       1.25945758        6 
C      -0.62979861      -2.08793888       0.28380857        6 
C       0.36605480      -3.09759317      -0.32277669        6 
C       1.67514660      -2.25725354      -0.33799556        6 
C       1.17897603      -0.91504036       0.25568128        6 
O       0.18630591      -1.33727434       1.19478239        8 
H      -1.20877864      -1.47947210      -1.75677924        1 
H       0.79667154      -0.34476410      -1.82307012        1 
H      -0.92717151       3.68712645      -0.70651788        1 
H      -4.61344584      -0.05851338       0.86709545        1 
H       0.45943187      -3.97069592       0.32480044        1 
H       0.06037500      -3.44333898      -1.31244944        1 
H       2.43395262      -2.68648380       0.31791338        1 
H       2.11622474      -2.13773880      -1.32662413        1 
H      -1.67288107       3.34655364       0.88738985        1 
H       0.09961720       3.55837676       0.74169466        1 
H      -3.74613419       1.49235107       0.88034839        1 
H      -3.74594941       0.46271744       2.34728837        1 
H      -1.47203141      -2.51489235       0.82072561        1 
C       2.23763308      -0.08900711       0.95601784        6 
O       3.29402140       0.11886929       0.03908603        8 
H       2.58554633      -0.63563445       1.84406617        1 
H       1.81554256       0.86571062       1.29743104        1 
C       4.13762283       1.20181434       0.38429234        6 
H       4.90535971       1.26478766      -0.38681406        1 
H       4.62005348       1.04286793       1.35909986        1 
H       3.57542559       2.14368735       0.40574817        1 
