36
Lattice="0.0 0.0 0.0 0.0 0.0 0.0 0.0 0.0 0.0" Properties=species:S:1:pos:R:3:Z:I:1 pbc="F F F"
C      -1.11584081      -0.77019654      -0.83101066        6 
C       0.29769989      -0.06929529      -0.75924358        6 
C      -2.23362284       0.05132541      -0.20380335        6 
C       0.25426946       1.33899941      -0.19906986        6 
O      -2.86940476      -0.59035953       0.78752501        8 
O      -2.53905898       1.15484800      -0.59010514        8 
O       0.35782926       2.24154135      -1.18973875        8 
O       0.14067629       1.63172822       0.96764579        8 
C       0.20154536       3.61823351      -0.80331529        6 
C      -3.92164332       0.14355168       1.44363435        6 
C      -0.80534690      -2.11835223      -0.14253376        6 
C       0.10451501      -2.97107206      -1.05551367        6 
C       1.48065964      -2.27425457      -0.84853729        6 
C       1.09157519      -1.11403197       0.09941974        6 
O       0.07623323      -1.71917134       0.91625349        8 
H      -1.40782885      -0.89799531      -1.87610655        1 
H       0.72458945       0.00156904      -1.75676557        1 
H       0.95972399       3.89948698      -0.07081223        1 
H      -4.69831546       0.41913301       0.72877785        1 
H       0.12422248      -4.00607104      -0.71138210        1 
H      -0.22970471      -2.96954992      -2.09552450        1 
H       2.18802460      -2.93310752      -0.34160423        1 
H       1.94471786      -1.92634957      -1.77115228        1 
H       0.32184225       4.19124982      -1.72007966        1 
H      -0.79193603       3.77335172      -0.38038968        1 
H      -3.51573806       1.04469604       1.90467031        1 
H      -4.31432680      -0.53197393       2.20005051        1 
H      -1.67044515      -2.62552877       0.27288521        1 
C       2.19826932      -0.57200487       0.97815370        6 
O       3.07385970       0.16941570       0.14135129        8 
H       2.72937258      -1.40637622       1.45777154        1 
H       1.76962743       0.06694672       1.75611293        1 
C       4.05021263       0.89019173       0.87023279        6 
H       4.65320544       1.43829167       0.14592743        1 
H       4.70283033       0.21641271       1.44277785        1 
H       3.57895403       1.59983623       1.56299693        1 
