36
Lattice="0.0 0.0 0.0 0.0 0.0 0.0 0.0 0.0 0.0" Properties=species:S:1:pos:R:3:Z:I:1 pbc="F F F"
C      -1.00335875      -1.05394445      -0.79400006        6 
C       0.33890740      -0.22770456      -0.89836797        6 
C      -2.22004095      -0.20738090      -0.45302889        6 
C       0.17672278       1.27619810      -0.79370436        6 
O      -2.66175388      -0.38864076       0.80082243        8 
O      -2.76045440       0.51878863      -1.25435188        8 
O      -0.35835118       1.65071841       0.38968563        8 
O       0.46860421       2.05359274      -1.66620719        8 
C      -0.67272068       3.04807819       0.52352022        6 
C      -3.78996018       0.41183613       1.19295138        6 
C      -0.61048184      -2.11104197       0.26504013        6 
C       0.38955217      -3.11229831      -0.35470391        6 
C       1.69695892      -2.26746960      -0.36408128        6 
C       1.19197223      -0.92528647       0.22197832        6 
O       0.20812753      -1.35605092       1.17029374        8 
H      -1.22913275      -1.50114960      -1.76325997        1 
H       0.80021725      -0.38431046      -1.87032506        1 
H      -1.42931154       3.33006081      -0.21064751        1 
H      -4.64979330       0.20502453       0.55395678        1 
H       0.48735728      -3.99353277       0.28085508        1 
H       0.08370513      -3.44639299      -1.34855251        1 
H       2.45060999      -2.69236828       0.30112903        1 
H       2.14375345      -2.15256061      -1.35116713        1 
H      -1.05579380       3.16274067       1.53550609        1 
H       0.21860340       3.65967516       0.37758894        1 
H      -3.53962790       1.47174535       1.12618876        1 
H      -3.99854381       0.13208933       2.22310451        1 
H      -1.44542637      -2.54514819       0.80659521        1 
C       2.23441045      -0.07890524       0.92049115        6 
O       3.15399669       0.36041679      -0.06244310        8 
H       2.73696415      -0.68496462       1.68821949        1 
H       1.75226732       0.77049941       1.41969554        1 
C       4.11220771       1.27221602       0.43969180        6 
H       4.76159160       1.54519927      -0.39179330        1 
H       4.71675972       0.81896215       1.23764376        1 
H       3.63113726       2.17892843       0.83160063        1 
