36
Lattice="0.0 0.0 0.0 0.0 0.0 0.0 0.0 0.0 0.0" Properties=species:S:1:pos:R:3:Z:I:1 pbc="F F F"
C      -1.11359076      -0.62455653      -0.65291269        6 
C       0.33505647      -0.02281606      -0.66841649        6 
C      -2.17509280       0.15000101       0.10929000        6 
C       0.45196005       1.40989776      -0.16611091        6 
O      -3.33623154      -0.54468880       0.09157481        8 
O      -2.06189401       1.22460952       0.64039298        8 
O      -0.00334463       2.24361742      -1.12882651        8 
O       0.91761729       1.79043633       0.87640400        8 
C      -0.09040093       3.63016908      -0.75939502        6 
C      -4.45318659       0.07066693       0.76145635        6 
C      -0.84577158      -2.00520337       0.01700330        6 
C      -0.08131955      -2.91767687      -0.96372888        6 
C       1.34549280      -2.30457869      -0.88701097        6 
C       1.12814351      -1.13007897       0.10241210        6 
O       0.13903219      -1.67172442       1.00062337        8 
H      -1.50136599      -0.75481813      -1.66526061        1 
H       0.67790164       0.01894393      -1.70244265        1 
H       0.89370851       4.01987835      -0.49467511        1 
H      -4.70137035       1.02308217       0.29045760        1 
H      -0.09440020      -3.94911326      -0.60811158        1 
H      -0.51177144      -2.90210540      -1.96719944        1 
H       2.05783387      -3.01168082      -0.45926702        1 
H       1.73710626      -1.97164733      -1.84785359        1 
H      -0.48053922       4.14119438      -1.63731113        1 
H      -0.76932663       3.74326153       0.08703790        1 
H      -4.22086677       0.23944881       1.81371687        1 
H      -5.27581547      -0.63336058       0.65754536        1 
H      -1.71620316      -2.44558441       0.49521689        1 
C       2.36178279      -0.71452486       0.87572124        6 
O       3.24882625      -0.11418127      -0.05683293        8 
H       2.82115917      -1.60445471       1.33057174        1 
H       2.08817921      -0.00986051       1.66334788        1 
C       4.30837251       0.58956897       0.56492424        6 
H       4.92138275       1.01483160      -0.23049887        1 
H       4.93150066      -0.07926415       1.17551689        1 
H       3.92345560       1.39854842       1.19864121        1 
