36
Lattice="0.0 0.0 0.0 0.0 0.0 0.0 0.0 0.0 0.0" Properties=species:S:1:pos:R:3:Z:I:1 pbc="F F F"
C      -0.92779655      -1.00640730      -0.74735170        6 
C       0.32734499      -0.05259157      -0.76088782        6 
C      -2.30017499      -0.41894007      -0.45658182        6 
C       0.17394088       1.42945386      -0.44534638        6 
O      -2.56348802      -0.33958618       0.86078876        8 
O      -3.10935818      -0.15790570      -1.31485604        8 
O      -1.08528980       1.80756169      -0.18217669        8 
O       1.09823402       2.20767142      -0.47480513        8 
C      -1.30271844       3.21073678       0.05461833        6 
C      -3.84933255       0.19202185       1.21341097        6 
C      -0.48507377      -2.06705885       0.30516811        6 
C       0.50905471      -3.03960125      -0.34999906        6 
C       1.75582581      -2.12359369      -0.49177899        6 
C       1.28019043      -0.82684235       0.22482858        6 
O       0.35024256      -1.31758529       1.19959452        8 
H      -1.03410285      -1.45544500      -1.73480104        1 
H       0.77746847      -0.05048404      -1.75497775        1 
H      -0.97546596       3.79548527      -0.80559173        1 
H      -4.64817415      -0.43627875       0.81575099        1 
H       0.70680255      -3.87961588       0.31796122        1 
H       0.14749265      -3.43810577      -1.30013373        1 
H       2.62253011      -2.53614901       0.02547002        1 
H       2.04858770      -1.93564677      -1.52436685        1 
H      -2.37506415       3.31385161       0.20296007        1 
H      -0.75699697       3.53398244       0.94183229        1 
H      -3.96286599       1.20326153       0.81904383        1 
H      -3.87234744       0.20005543       2.30102304        1 
H      -1.30112580      -2.51645466       0.86316395        1 
C       2.39768511      -0.06569330       0.90790557        6 
O       3.39472058       0.18956810      -0.06488678        8 
H       2.79461508      -0.69449687       1.71821343        1 
H       2.03137729       0.86603059       1.35023108        1 
C       4.28067893       1.23105585       0.30178792        6 
H       5.00611565       1.33055874      -0.50613149        1 
H       4.81524859       0.99605702       1.23339262        1 
H       3.74034777       2.17766407       0.42019474        1 
