36
Lattice="0.0 0.0 0.0 0.0 0.0 0.0 0.0 0.0 0.0" Properties=species:S:1:pos:R:3:Z:I:1 pbc="F F F"
C      -0.84664994       1.10904490       0.73594100        6 
C       0.32811495       0.05492240       0.69887595        6 
C      -2.21240496       0.62081773       0.30228171        6 
C      -0.08781451      -1.30988328       0.17264192        6 
O      -2.20970175       0.18074242      -0.97020255        8 
O      -3.19352741       0.63014148       1.00590292        8 
O      -0.98918363      -1.84706581       1.02829965        8 
O       0.29844069      -1.88143559      -0.81363870        8 
C      -1.51138398      -3.13928697       0.67249184        6 
C      -3.45583060      -0.33103138      -1.47407485        6 
C      -0.25685678       2.23094325      -0.17765714        6 
C       0.76513860       3.03286105       0.64770252        6 
C       1.91859565       1.99638995       0.75396840        6 
C       1.38804415       0.83253401      -0.13527322        6 
O       0.57161364       1.51786594      -1.10020296        8 
H      -0.99118102       1.47144049       1.75232462        1 
H       0.68320276      -0.12207430       1.71434660        1 
H      -0.71448210      -3.88482427       0.67131032        1 
H      -4.21640276       0.45139432      -1.47979774        1 
H       1.07681839       3.91930540       0.09321932        1 
H       0.37214862       3.35483662       1.61384678        1 
H       2.84763854       2.38745791       0.33687625        1 
H       2.12423443       1.67190787       1.77434538        1 
H      -2.25314955      -3.37098371       1.43340868        1 
H      -1.97039837      -3.10632421      -0.31685303        1 
H      -3.80330202      -1.16140219      -0.85716073        1 
H      -3.24080971      -0.66610654      -2.48614828        1 
H      -0.99724204       2.81276135      -0.72247140        1 
C       2.46778342       0.02946250      -0.83191910        6 
O       3.11517751      -0.74243813       0.17017653        8 
H       3.18004970       0.71752703      -1.30961112        1 
H       2.02471395      -0.61333833      -1.59398781        1 
C       3.97462279      -1.73049365      -0.36745367        6 
H       4.40899549      -2.27152204       0.47387206        1 
H       4.78523233      -1.28035523      -0.95794305        1 
H       3.41727968      -2.43125407      -1.00224238        1 
