36
Lattice="0.0 0.0 0.0 0.0 0.0 0.0 0.0 0.0 0.0" Properties=species:S:1:pos:R:3:Z:I:1 pbc="F F F"
C      -0.95046111       1.23554367       0.51326305        6 
C       0.22783357       0.22657427       0.78514435        6 
C      -2.25499097       0.66668111      -0.01891987        6 
C      -0.08404246      -1.23696166       0.54245329        6 
O      -2.66593705      -0.37587421       0.73018792        8 
O      -2.90063982       1.13260586      -0.92379714        8 
O      -0.40872127      -1.48242690      -0.74633892        8 
O      -0.05036478      -2.09136982       1.39176292        8 
C      -0.77764969      -2.83642347      -1.05484908        6 
C      -3.90488692      -0.99498548       0.34007319        6 
C      -0.28961830       2.23142557      -0.46645955        6 
C       0.70773861       3.11919205       0.30536765        6 
C       1.87394756       2.11725885       0.54682037        6 
C       1.33343149       0.84257504      -0.15119313        6 
O       0.57260632       1.38242562      -1.23955481        8 
H      -1.22206039       1.72493588       1.45332076        1 
H       0.54138290       0.27366654       1.82496322        1 
H      -1.62488899      -3.14748574      -0.44135785        1 
H      -3.84123999      -1.35182587      -0.68917557        1 
H       1.02556496       3.95751363      -0.31577459        1 
H       0.28435685       3.52201335       1.22780611        1 
H       2.78981373       2.44344364       0.05140367        1 
H       2.10326298       1.95020486       1.59911285        1 
H      -1.04533878      -2.83131124      -2.10924399        1 
H       0.05896494      -3.51354495      -0.87363063        1 
H      -4.72935224      -0.28528601       0.42268258        1 
H      -4.04142965      -1.82537215       1.02912064        1 
H      -0.99133948       2.73676151      -1.12334743        1 
C       2.38734692      -0.10490634      -0.68518293        6 
O       3.06264348      -0.66071355       0.42896465        8 
H       3.08140405       0.45347513      -1.32988335        1 
H       1.91508251      -0.88638811      -1.29230913        1 
C       3.99710999      -1.66101216       0.07353352        6 
H       4.44494951      -2.02475899       0.99814443        1 
H       4.78748940      -1.26017608      -0.57659477        1 
H       3.50714593      -2.49910892      -0.44089094        1 
