36
Lattice="0.0 0.0 0.0 0.0 0.0 0.0 0.0 0.0 0.0" Properties=species:S:1:pos:R:3:Z:I:1 pbc="F F F"
C      -1.19039112      -0.66882625      -0.51439006        6 
C       0.17376828       0.06346882      -0.63585972        6 
C      -2.43266672       0.19634644      -0.57645547        6 
C       0.18667359       1.40196726       0.09811683        6 
O      -3.39993289      -0.25253634       0.24842472        8 
O      -2.56787533       1.13074874      -1.32550586        8 
O       1.37330618       2.02798404      -0.06817138        8 
O      -0.74261281       1.90853967       0.67231363        8 
C       1.47686451       3.33930542       0.51583224        6 
C      -4.63194611       0.49397211       0.23486611        6 
C      -0.94614293      -1.67041255       0.65344909        6 
C      -0.36892413      -2.94462570       0.01844410        6 
C       0.97106254      -2.37363408      -0.53360781        6 
C       1.04514363      -0.97982722       0.16621399        6 
O       0.21286638      -1.14666927       1.32802259        8 
H      -1.29967194      -1.26062594      -1.43197196        1 
H       0.51928727       0.20753960      -1.65740687        1 
H       1.35153728       3.28758544       1.59879121        1 
H      -5.08596582       0.46456572      -0.75697341        1 
H      -0.19279028      -3.70129768       0.78472030        1 
H      -1.01375418      -3.37158391      -0.75233333        1 
H       1.82629749      -2.98617453      -0.24804740        1 
H       0.98613191      -2.27896491      -1.62023868        1 
H       2.47453360       3.69064813       0.26103434        1 
H       0.71721611       4.00171457       0.09867016        1 
H      -4.44536970       1.53082961       0.51640199        1 
H      -5.27342264       0.00593226       0.96543288        1 
H      -1.76575307      -1.78395474       1.35523056        1 
C       2.44577390      -0.59444318       0.59303890        6 
O       3.23119530      -0.46459296      -0.57772876        8 
H       2.84082820      -1.39113378       1.24096333        1 
H       2.44204725       0.33754166       1.16609912        1 
C       4.51837708       0.05937370      -0.31912976        6 
H       5.03686938       0.12795473      -1.27561759        1 
H       5.09169365      -0.59399966       0.35406403        1 
H       4.45407356       1.06004226       0.12914620        1 
