36
Lattice="0.0 0.0 0.0 0.0 0.0 0.0 0.0 0.0 0.0" Properties=species:S:1:pos:R:3:Z:I:1 pbc="F F F"
C      -1.04307603      -1.18243794      -0.57786504        6 
C       0.22006136      -0.26638735      -0.79802812        6 
C      -2.37575455      -0.63310780      -0.08633495        6 
C       0.00750994       1.23620653      -0.70490975        6 
O      -2.48900497       0.69896651      -0.13899215        8 
O      -3.27833466      -1.36431118       0.24903033        8 
O       0.09787319       1.71793554       0.54957262        8 
O      -0.22781459       1.92649970      -1.66577205        8 
C      -0.15287629       3.12337908       0.69593956        6 
C      -3.76448167       1.25163550       0.23740284        6 
C      -0.48458169      -2.23008730       0.42646779        6 
C       0.48543603      -3.18017618      -0.30175864        6 
C       1.72156013      -2.25506637      -0.48630921        6 
C       1.23556583      -0.94461419       0.18981187        6 
O       0.38751073      -1.43536711       1.24206401        8 
H      -1.30511681      -1.66966914      -1.52078446        1 
H       0.56451840      -0.40208899      -1.82171195        1 
H      -1.16533103       3.36220163       0.36662938        1 
H      -3.95578143       1.06947546       1.29584822        1 
H       0.72034010      -4.03705767       0.33120846        1 
H       0.07567627      -3.55609769      -1.24121997        1 
H       2.59093317      -2.64231675       0.04739379        1 
H       2.00682752      -2.10388963      -1.52750025        1 
H      -0.03590698       3.33173756       1.75759020        1 
H       0.55884878       3.70480105       0.10753894        1 
H      -4.56234193       0.80585467      -0.35725164        1 
H      -3.68549208       2.31758226       0.03696066        1 
H      -1.24749159      -2.70009610       1.04040439        1 
C       2.33768875      -0.08445414       0.77644829        6 
O       2.96958566       0.58328716      -0.30369090        8 
H       3.05501550      -0.72462264       1.30949947        1 
H       1.91161860       0.63066843       1.48469782        1 
C       3.95392569       1.50828881       0.11441215        6 
H       4.37233119       1.96125400      -0.78446246        1 
H       4.75893860       1.01342161       0.67543039        1 
H       3.51776419       2.29556665       0.74497815        1 
