36
Lattice="0.0 0.0 0.0 0.0 0.0 0.0 0.0 0.0 0.0" Properties=species:S:1:pos:R:3:Z:I:1 pbc="F F F"
C      -1.21877353      -0.74627396      -0.72844986        6 
C       0.18220739      -0.04982381      -0.72928167        6 
C      -2.38338477       0.19713876      -0.48693189        6 
C       0.19449148       1.31134499      -0.05923363        6 
O      -3.19423622      -0.21160794       0.50202049        8 
O      -2.58330579       1.17990978      -1.15971600        8 
O       1.12368977       2.11140383      -0.61985363        8 
O      -0.49987259       1.64699527       0.86853818        8 
C       1.24093952       3.42787201      -0.05130828        6 
C      -4.30111822       0.65863188       0.80516283        6 
C      -0.99746743      -1.92542901       0.25556167        6 
C      -0.25452067      -3.04682399      -0.49566850        6 
C       1.14906623      -2.39691094      -0.66870868        6 
C       0.98702927      -1.08408816       0.14514554        6 
O       0.02156070      -1.43555754       1.14238468        8 
H      -1.40725396      -1.13252167      -1.73470177        1 
H       0.61135126       0.04400731      -1.72336719        1 
H       1.51749070       3.36706993       1.00282960        1 
H      -4.95914378       0.75585611      -0.05979390        1 
H      -0.20250760      -3.94278297       0.12507949        1 
H      -0.73070426      -3.31423850      -1.44102114        1 
H       1.93696172      -3.01013789      -0.22907226        1 
H       1.41846374      -2.20468203      -1.70731700        1 
H       2.02217495       3.92162385      -0.62493052        1 
H       0.29622745       3.96588513      -0.14280387        1 
H      -3.93023770       1.64287779       1.09280006        1 
H      -4.82197729       0.18507878       1.63437164        1 
H      -1.87296389      -2.21681482       0.82654220        1 
C       2.24859482      -0.58141601       0.81446424        6 
O       3.20556714      -0.32613858      -0.19580176        8 
H       2.60883983      -1.34890595       1.51512818        1 
H       2.03875384       0.32558653       1.39744038        1 
C       4.36074737       0.32788739       0.29031028        6 
H       5.02439086       0.48336988      -0.56034719        1 
H       4.88025060      -0.27899639       1.04531981        1 
H       4.10949683       1.30184860       0.73289925        1 
