36
Lattice="0.0 0.0 0.0 0.0 0.0 0.0 0.0 0.0 0.0" Properties=species:S:1:pos:R:3:Z:I:1 pbc="F F F"
C      -1.08029148      -1.02630880      -0.51378864        6 
C       0.21065188      -0.15836803      -0.73450559        6 
C      -2.46442079      -0.42246921      -0.37921895        6 
C       0.11549768       1.34127009      -0.48858982        6 
O      -2.50580679       0.80064275       0.16862011        8 
O      -3.45392949      -1.02218091      -0.73343826        8 
O       0.01269946       1.67345055       0.80813037        8 
O       0.21850300       2.15656216      -1.37531588        8 
C      -0.12437301       3.07412076       1.08677043        6 
C      -3.81253374       1.39152370       0.30406867        6 
C      -0.66446717      -1.92088103       0.70989702        6 
C       0.16312562      -3.09657068       0.16642066        6 
C       1.43194209      -2.33581216      -0.31163495        6 
C       1.17936626      -0.90336736       0.24951678        6 
O       0.32650112      -1.14145601       1.38141269        8 
H      -1.19513076      -1.67787874      -1.38016846        1 
H       0.54921436      -0.24833474      -1.76403920        1 
H      -1.01964967       3.46818349       0.60234860        1 
H      -4.44612883       0.77143265       0.93935164        1 
H       0.39544876      -3.78815875       0.97817131        1 
H      -0.34303836      -3.65165350      -0.62511810        1 
H       2.34425197      -2.75440623       0.11512471        1 
H       1.54960380      -2.33103564      -1.39547686        1 
H      -0.21106416       3.14695561       2.16877402        1 
H       0.74515321       3.62912582       0.73024267        1 
H      -4.28110962       1.50327034      -0.67443825        1 
H      -3.64240318       2.36302677       0.76251821        1 
H      -1.47215872      -2.16879388       1.39489991        1 
C       2.43625626      -0.17543056       0.67998779        6 
O       3.19956388       0.05914495      -0.49048826        8 
H       2.98954041      -0.80820549       1.38945451        1 
H       2.18392155       0.76328932       1.18423642        1 
C       4.39738975       0.76996259      -0.24331674        6 
H       4.90194431       0.89022054      -1.20189153        1 
H       5.05476328       0.21937519       0.44409561        1 
H       4.19380767       1.76255116       0.18138409        1 
