36
Lattice="0.0 0.0 0.0 0.0 0.0 0.0 0.0 0.0 0.0" Properties=species:S:1:pos:R:3:Z:I:1 pbc="F F F"
C      -1.24930600      -1.01161064      -0.70418678        6 
C       0.12324177      -0.26207562      -0.82314129        6 
C      -2.42877143      -0.23535084      -0.14749622        6 
C      -0.05528568       1.25034343      -0.84038133        6 
O      -2.08641698       0.56676726       0.87723906        8 
O      -3.56462321      -0.39260714      -0.52484540        8 
O       0.84377673       1.94281875      -0.12664934        8 
O      -0.92707748       1.77685602      -1.49141354        8 
C       0.70728211       3.37609695      -0.17343838        6 
C      -3.15242461       1.33066085       1.46667984        6 
C      -0.86455853      -2.14457523       0.29194063        6 
C       0.04537252      -3.16764029      -0.41786212        6 
C       1.39145199      -2.38904862      -0.45373023        6 
C       0.99569001      -1.04542836       0.22050073        6 
O       0.02873832      -1.47779876       1.19277336        8 
H      -1.58296090      -1.41305456      -1.65871356        1 
H       0.52821335      -0.45708781      -1.82002742        1 
H      -0.26971073       3.67598437       0.20757762        1 
H      -3.94420313       0.67147839       1.82489812        1 
H       0.12576310      -4.08031439       0.17434750        1 
H      -0.32735281      -3.43718912      -1.40775412        1 
H       2.15328481      -2.88623037       0.14863786        1 
H       1.79656752      -2.25226516      -1.45616383        1 
H       1.50258940       3.76256142       0.46024208        1 
H       0.82049899       3.73565069      -1.19680606        1 
H      -3.56430971       2.02603781       0.73336879        1 
H      -2.69793064       1.86913502       2.29549371        1 
H      -1.70308810      -2.56052373       0.84676879        1 
C       2.14289201      -0.35173321       0.92294862        6 
O       3.10418626      -0.01616459      -0.06429064        8 
H       2.57094990      -1.04767335       1.65914495        1 
H       1.79215914       0.53966967       1.44906326        1 
C       4.12531972       0.82818597       0.42588578        6 
H       4.80676183       1.02478776      -0.40226776        1 
H       4.68393992       0.35268448       1.24457972        1 
H       3.71190352       1.77985231       0.78640015        1 
