36
Lattice="0.0 0.0 0.0 0.0 0.0 0.0 0.0 0.0 0.0" Properties=species:S:1:pos:R:3:Z:I:1 pbc="F F F"
C      -0.94374819       1.22145197       0.50669749        6 
C       0.22323436       0.19760003       0.76672871        6 
C      -2.24463317       0.63281242      -0.00755523        6 
C      -0.06824851      -1.25661642       0.45496860        6 
O      -2.75487963      -0.22641628       0.90300322        8 
O      -2.78502588       0.90103231      -1.04915539        8 
O      -0.62123011      -1.41469086      -0.76485653        8 
O       0.19277441      -2.17672956       1.19034618        8 
C      -0.93035593      -2.76173439      -1.15868591        6 
C      -3.96168335      -0.91033338       0.52121212        6 
C      -0.28633655       2.19424844      -0.49994541        6 
C       0.70675760       3.10223378       0.25179648        6 
C       1.86475470       2.10198436       0.53752056        6 
C       1.33913357       0.81727880      -0.15416893        6 
O       0.58534620       1.33554438      -1.25457801        8 
H      -1.19099927       1.72252036       1.44600251        1 
H       0.53656104       0.20901847       1.80760038        1 
H      -1.59686731      -3.22954157      -0.43221872        1 
H      -3.78918432      -1.50266087      -0.37928302        1 
H       1.03580625       3.91709282      -0.39450468        1 
H       0.27768565       3.53812693       1.15643154        1 
H       2.79539565       2.41842603       0.06412273        1 
H       2.06526658       1.94901179       1.59769380        1 
H      -1.41428905      -2.67388087      -2.12881875        1 
H      -0.01797965      -3.35574205      -1.23719530        1 
H      -4.76426225      -0.19616921       0.33193106        1 
H      -4.20920021      -1.55418577       1.36215319        1 
H      -0.98709419       2.68000345      -1.17252879        1 
C       2.40730701      -0.13180562      -0.65451114        6 
O       3.16388665      -0.54821626       0.46667266        8 
H       3.03886295       0.39109285      -1.38719302        1 
H       1.94980964      -0.99087668      -1.16290434        1 
C       4.05570232      -1.60740619       0.17516525        6 
H       4.58832925      -1.84058871       1.09698191        1 
H       4.78221034      -1.31988227      -0.59788647        1 
H       3.51180053      -2.50072224      -0.16023753        1 
