36
Lattice="0.0 0.0 0.0 0.0 0.0 0.0 0.0 0.0 0.0" Properties=species:S:1:pos:R:3:Z:I:1 pbc="F F F"
C      -1.14235901      -0.71369463      -0.53451708        6 
C       0.28287822      -0.10658061      -0.76875079        6 
C      -2.29675879       0.22629997      -0.25110972        6 
C       0.41194440       1.39689134      -0.55546237        6 
O      -3.45136595      -0.48283177      -0.28256925        8 
O      -2.25927485       1.40647102      -0.01574861        8 
O       0.40991587       1.75246047       0.73864186        8 
O       0.55720467       2.17604459      -1.46642930        8 
C       0.37373868       3.16535722       0.99722896        6 
C      -4.65665495       0.25472974      -0.00423910        6 
C      -0.87294156      -1.73689203       0.61994258        6 
C      -0.23784363      -2.99610560       0.00396654        6 
C       1.16605414      -2.44281367      -0.37775000        6 
C       1.11442273      -1.00363204       0.21303807        6 
O       0.22036101      -1.15220869       1.32912140        8 
H      -1.44921860      -1.26694870      -1.42448988        1 
H       0.59576833      -0.26579395      -1.79783973        1 
H      -0.54831480       3.58566965       0.59310459        1 
H      -4.80137389       1.04109113      -0.74650242        1 
H      -0.16392103      -3.78237305       0.75708932        1 
H      -0.80450103      -3.38507289      -0.84368230        1 
H       1.96487168      -3.01111982       0.10111691        1 
H       1.35702524      -2.43974658      -1.45099081        1 
H       0.39525796       3.26218488       2.08069918        1 
H       1.23299915       3.66418926       0.54586261        1 
H      -4.60955801       0.70257985       0.98953658        1 
H      -5.46117313      -0.47538406      -0.05823210        1 
H      -1.71078502      -1.89843744       1.29357508        1 
C       2.45149194      -0.46780926       0.68272889        6 
O       3.23012606      -0.22127825      -0.47593894        8 
H       2.93472533      -1.21705234       1.32658193        1 
H       2.30753026       0.44775479       1.26520931        1 
C       4.48213834       0.37114830      -0.18870765        6 
H       4.99356151       0.51745255      -1.14004941        1 
H       5.09438634      -0.27659056       0.45450337        1 
H       4.35857958       1.34451270       0.30541786        1 
