36
Lattice="0.0 0.0 0.0 0.0 0.0 0.0 0.0 0.0 0.0" Properties=species:S:1:pos:R:3:Z:I:1 pbc="F F F"
C      -0.97749941       1.19347102       0.58323662        6 
C       0.21352276       0.16277078       0.68979543        6 
C      -2.11713556       0.73639142      -0.31207387        6 
C      -0.10220597      -1.21898718       0.16047183        6 
O      -2.99159659      -0.01154228       0.40644866        8 
O      -2.22744523       0.93439493      -1.49182668        8 
O      -0.24167914      -2.09291427       1.18075813        8 
O      -0.23651002      -1.52835253      -0.99844883        8 
C      -0.56848879      -3.44237848       0.80707494        6 
C      -4.05337730      -0.62627237      -0.34833968        6 
C      -0.23489845       2.40286008      -0.03486941        6 
C       0.74498784       3.00068390       1.00077598        6 
C       1.91729330       1.97395857       0.93684668        6 
C       1.34853755       0.93911354      -0.06565354        6 
O       0.63617514       1.77426419      -0.98220464        8 
H      -1.38312140       1.40017682       1.57365118        1 
H       0.48160978       0.03712882       1.73608089        1 
H       0.21813128      -3.86499519       0.17987504        1 
H      -3.63795382      -1.28243137      -1.11482708        1 
H       1.06851170       3.99466336       0.68951959        1 
H       0.30000844       3.08598950       1.99460366        1 
H       2.81750377       2.42836816       0.51878610        1 
H       2.17395584       1.53654974       1.90184142        1 
H      -0.64900450      -3.99184216       1.74241279        1 
H      -1.51378988      -3.46924318       0.26233053        1 
H      -4.67406737       0.13383783      -0.82506771        1 
H      -4.63349645      -1.19445127       0.37577884        1 
H      -0.88034295       3.10945835      -0.55032510        1 
C       2.34707602       0.09097838      -0.82327783        6 
O       2.85349602      -0.87760808       0.08291382        8 
H       3.15643873       0.72569625      -1.21016837        1 
H       1.84143278      -0.39028509      -1.66728755        1 
C       3.69509669      -1.82909417      -0.54190432        6 
H       4.02526718      -2.52359518       0.23104024        1 
H       4.57577409      -1.35082651      -0.99267766        1 
H       3.15587180      -2.38295268      -1.32226032        1 
