36
Lattice="0.0 0.0 0.0 0.0 0.0 0.0 0.0 0.0 0.0" Properties=species:S:1:pos:R:3:Z:I:1 pbc="F F F"
C      -1.04078911      -0.72756671      -0.48810415        6 
C       0.31534402      -0.00555556      -0.70801114        6 
C      -2.30650707       0.09968403      -0.53097623        6 
C       0.42661397       1.44731626      -0.27002133        6 
O      -3.35909174      -0.65997388      -0.14590712        8 
O      -2.41210131       1.24633901      -0.88428413        8 
O      -0.30190083       1.72517127       0.82072838        8 
O       1.19439336       2.23135235      -0.77845068        8 
C      -0.25365122       3.08222463       1.28838733        6 
C      -4.65029583      -0.02344744      -0.18569102        6 
C      -0.75740730      -1.63030250       0.75926623        6 
C      -0.11334734      -2.92618450       0.23995939        6 
C       1.23340679      -2.35691480      -0.30020815        6 
C       1.20493682      -0.89554443       0.24035294        6 
O       0.35885374      -0.99524925       1.39596810        8 
H      -1.18395926      -1.40254564      -1.34034772        1 
H       0.65954330      -0.04944625      -1.73841227        1 
H      -0.62565107       3.75766921       0.51644503        1 
H      -4.89346570       0.28264941      -1.20438765        1 
H       0.05312288      -3.61806739       1.06737653        1 
H      -0.71251597      -3.43297419      -0.51898374        1 
H       2.09376463      -2.88908387       0.10694777        1 
H       1.31314340      -2.38786294      -1.38741370        1 
H      -0.89890952       3.10916054       2.16364195        1 
H       0.76695090       3.36212095       1.55479063        1 
H      -4.66394732       0.85165909       0.46541566        1 
H      -5.35407118      -0.77448569       0.16657452        1 
H      -1.58149580      -1.73223028       1.45900698        1 
C       2.55870370      -0.33576189       0.62065636        6 
O       3.35356581      -0.33348733      -0.55007085        8 
H       3.00488430      -0.96932944       1.40107675        1 
H       2.45740978       0.67773413       1.02763231        1 
C       4.50406446       0.48570100      -0.44485828        6 
H       5.03806262       0.40767442      -1.39194618        1 
H       5.16456660       0.15010403       0.36723076        1 
H       4.22433061       1.53289395      -0.27468597        1 
