36
Lattice="0.0 0.0 0.0 0.0 0.0 0.0 0.0 0.0 0.0" Properties=species:S:1:pos:R:3:Z:I:1 pbc="F F F"
C      -0.92563898       1.07346262       0.75196990        6 
C       0.29066199       0.08199728       0.73879817        6 
C      -2.21548628       0.63505559       0.08904040        6 
C      -0.06634984      -1.35151612       0.38411599        6 
O      -2.01042315      -0.13832011      -0.99192472        8 
O      -3.30738563       1.00836386       0.44696667        8 
O      -1.06673266      -1.76176888       1.20214379        8 
O       0.47066729      -2.08074242      -0.40849863        8 
C      -1.54011865      -3.10401959       1.00015555        6 
C      -3.18197142      -0.56279740      -1.70969855        6 
C      -0.31843063       2.26601302      -0.05449442        6 
C       0.72873595       2.98948638       0.81480304        6 
C       1.91363081       1.98312516       0.74674992        6 
C       1.31955895       0.85781538      -0.14334194        6 
O       0.47623058       1.60180297      -1.04238849        8 
H      -1.19787713       1.37532898       1.76135635        1 
H       0.67746013       0.00434030       1.75748496        1 
H      -0.73630482      -3.82372870       1.16195399        1 
H      -3.71706436       0.29991849      -2.10897169        1 
H       0.99212115       3.94804908       0.36541833        1 
H       0.37225013       3.17814388       1.82920464        1 
H       2.78034856       2.42219423       0.25033810        1 
H       2.23619908       1.61556609       1.72071144        1 
H      -2.33401356      -3.24467406       1.73036120        1 
H      -1.92700826      -3.22053259      -0.01388269        1 
H      -3.84698858      -1.12474120      -1.05153741        1 
H      -2.81273420      -1.19231991      -2.51607547        1 
H      -1.05535853       2.90422335      -0.53794777        1 
C       2.34636092       0.06984179      -0.92846807        6 
O       3.15402468      -0.61336504       0.01731695        8 
H       2.95130047       0.77065109      -1.52254966        1 
H       1.85240251      -0.63351870      -1.60185361        1 
C       3.93510118      -1.64231225      -0.56240808        6 
H       4.50120860      -2.10769472       0.24517019        1 
H       4.63889159      -1.24209727      -1.30613994        1 
H       3.29609286      -2.39543955      -1.03956483        1 
