36
Lattice="0.0 0.0 0.0 0.0 0.0 0.0 0.0 0.0 0.0" Properties=species:S:1:pos:R:3:Z:I:1 pbc="F F F"
C      -0.99346054      -1.08484347      -0.38431305        6 
C       0.22870386      -0.12676851      -0.69662966        6 
C      -2.24756074      -0.36370525       0.06255533        6 
C      -0.11019444       1.32747937      -0.40081608        6 
O      -3.15380838      -0.33630587      -0.93652947        8 
O      -2.43383557       0.13093923       1.14723741        8 
O       0.16371913       1.70688531       0.85249172        8 
O      -0.62123157       2.05131410      -1.22475117        8 
C      -0.30166131       3.01194190       1.24034520        6 
C      -4.36326259       0.40106880      -0.67582581        6 
C      -0.37863922      -2.01471894       0.70172656        6 
C       0.47688010      -3.07461568      -0.01490617        6 
C       1.65583140      -2.18977689      -0.51322541        6 
C       1.33290344      -0.81955604       0.15869913        6 
O       0.61283476      -1.20309772       1.33937638        8 
H      -1.24791245      -1.64628752      -1.28198644        1 
H       0.46428188      -0.15615465      -1.75799449        1 
H      -1.39090098       3.04277030       1.19182500        1 
H      -4.13058678       1.45288427      -0.50318426        1 
H       0.81717621      -3.82450692       0.70133007        1 
H      -0.05745083      -3.58629459      -0.81815522        1 
H       2.61803064      -2.56358041      -0.16016701        1 
H       1.71031315      -2.10944293      -1.59937987        1 
H       0.03504918       3.14293234       2.26611705        1 
H       0.11784731       3.78098188       0.59040911        1 
H      -4.87930561      -0.00538331       0.19506129        1 
H      -4.96979506       0.28716517      -1.57137508        1 
H      -1.08496299      -2.37762632       1.44466359        1 
C       2.55149543       0.00327058       0.52465929        6 
O       3.08806457       0.51114806      -0.68759245        8 
H       3.28287052      -0.64011615       1.03453060        1 
H       2.27261202       0.81565566       1.20094399        1 
C       4.22473422       1.32989383      -0.48885375        6 
H       4.54897033       1.67410082      -1.47111252        1 
H       5.04361807       0.77047207      -0.01533309        1 
H       3.98499013       2.20047004       0.13704530        1 
