36
Lattice="0.0 0.0 0.0 0.0 0.0 0.0 0.0 0.0 0.0" Properties=species:S:1:pos:R:3:Z:I:1 pbc="F F F"
C      -1.36531075      -0.50864509      -0.76768119        6 
C       0.11928924      -0.07429604      -0.84269945        6 
C      -2.18454867       0.28831981       0.24000331        6 
C       0.31183410       1.43374981      -0.84418105        6 
O      -3.48026564      -0.09698930       0.17174650        8 
O      -1.77977141       1.12478210       1.00367209        8 
O       1.51477643       1.82249570      -0.38926796        8 
O      -0.51582751       2.19890923      -1.27501811        8 
C       1.76559565       3.24024409      -0.42483509        6 
C      -4.37975414       0.54925103       1.09108877        6 
C      -1.17656270      -1.91918107      -0.13916940        6 
C      -0.33337819      -2.83928974      -1.05479822        6 
C       1.11312925      -2.35605930      -0.73442248        6 
C       0.81530278      -1.10834837       0.12912092        6 
O      -0.27772740      -1.59993859       0.93434480        8 
H      -1.87702329      -0.52239889      -1.72876469        1 
H       0.46814759      -0.32507059      -1.85156692        1 
H       1.02904781       3.76984979       0.18068698        1 
H      -4.37113157       1.62889463       0.93563200        1 
H      -0.47759563      -3.88636043      -0.78629242        1 
H      -0.60127009      -2.72378668      -2.10778405        1 
H       1.65186524      -3.09016857      -0.13302097        1 
H       1.71353663      -2.12949159      -1.61507517        1 
H       2.76558430       3.36611049      -0.01532048        1 
H       1.72172551       3.60969859      -1.45032855        1 
H      -4.09295628       0.33152047       2.12122025        1 
H      -5.36275816       0.13762335       0.87222302        1 
H      -2.08838744      -2.35648661       0.25949480        1 
C       1.93226597      -0.66480082       1.04783169        6 
O       3.11772920      -0.54760861       0.28120410        8 
H       2.05123374      -1.43051178       1.82787915        1 
H       1.67800134       0.28505428       1.52918742        1 
C       4.15927128       0.10204564       0.97942234        6 
H       5.02034138       0.14103604       0.31158813        1 
H       4.43704631      -0.44591004       1.89128808        1 
H       3.87124381       1.12496220       1.25769855        1 
