36
Lattice="0.0 0.0 0.0 0.0 0.0 0.0 0.0 0.0 0.0" Properties=species:S:1:pos:R:3:Z:I:1 pbc="F F F"
C      -0.83063440       1.05227243       0.73045873        6 
C       0.33561763      -0.01679616       0.70774495        6 
C      -2.24042158       0.58543989       0.42022261        6 
C       0.00452498      -1.42516689       0.22141102        6 
O      -2.45164756       0.47118423      -0.90721029        8 
O      -3.08133825       0.35626979       1.25389535        8 
O      -1.24491399      -1.78184787       0.56836774        8 
O       0.77501837      -2.19106403      -0.30330602        8 
C      -1.65444703      -3.11929419       0.23384775        6 
C      -3.74121555      -0.02541666      -1.30090510        6 
C      -0.27346918       2.12579005      -0.25355621        6 
C       0.73842925       2.99773483       0.50574172        6 
C       1.88957528       1.97506598       0.70716025        6 
C       1.39764248       0.76061387      -0.13878094        6 
O       0.56715404       1.37435026      -1.13914182        8 
H      -0.90362515       1.46054140       1.73856442        1 
H       0.70319697      -0.17328404       1.72499526        1 
H      -0.99533810      -3.84947691       0.70517659        1 
H      -4.53340034       0.63746818      -0.94941386        1 
H       1.05365389       3.83333345      -0.12126410        1 
H       0.33914973       3.40016084       1.43878908        1 
H       2.83514204       2.34614063       0.31057718        1 
H       2.05689636       1.70419455       1.75002599        1 
H      -2.66789014      -3.21118662       0.61807677        1 
H      -1.63474353      -3.26149771      -0.84785826        1 
H      -3.90197082      -1.02366938      -0.89018374        1 
H      -3.72101054      -0.05690460      -2.38815799        1 
H      -1.03068621       2.64977312      -0.83063274        1 
C       2.52446722      -0.00425230      -0.80266940        6 
O       3.31813438      -0.56182431       0.23177847        8 
H       3.11346363       0.70393376      -1.40422724        1 
H       2.13075753      -0.78153230      -1.45949268        1 
C       4.17581535      -1.59297919      -0.22160352        6 
H       4.73284328      -1.94927507       0.64565405        1 
H       4.88793966      -1.22361223      -0.97351428        1 
H       3.59724775      -2.42151625      -0.64738386        1 
