36
Lattice="0.0 0.0 0.0 0.0 0.0 0.0 0.0 0.0 0.0" Properties=species:S:1:pos:R:3:Z:I:1 pbc="F F F"
C      -1.14984991      -0.76698109      -0.49804036        6 
C       0.26411744      -0.13505256      -0.76078137        6 
C      -2.28020881       0.15477286      -0.09484373        6 
C       0.31492382       1.37882408      -0.59820100        6 
O      -3.45826851      -0.39388195      -0.47822201        8 
O      -2.20705395       1.18843216       0.51961609        8 
O       0.58675332       1.78858888       0.64700638        8 
O       0.15542174       2.12826354      -1.53316376        8 
C       0.48247758       3.20386609       0.87813859        6 
C      -4.64485273       0.33099128      -0.10271755        6 
C      -0.82345625      -1.80343566       0.63202446        6 
C      -0.16688150      -3.03202451      -0.02330889        6 
C       1.21878975      -2.43827364      -0.40582795        6 
C       1.13491652      -1.00759074       0.20314551        6 
O       0.26242085      -1.19681965       1.33107707        8 
H      -1.49071538      -1.29678464      -1.38679517        1 
H       0.55021610      -0.30355230      -1.79659244        1 
H      -0.54815613       3.52266870       0.71728868        1 
H      -4.63918794       1.32617672      -0.54963450        1 
H      -0.06809679      -3.83677202       0.70699044        1 
H      -0.73536264      -3.40963117      -0.87471371        1 
H       2.03372281      -2.99164502       0.06325975        1 
H       1.40423003      -2.41816479      -1.47985697        1 
H       0.76823943       3.34901382       1.91775228        1 
H       1.14700525       3.75457901       0.21090413        1 
H      -4.70862005       0.42449391       0.98258479        1 
H      -5.47582015      -0.25644602      -0.48692434        1 
H      -1.64220066      -2.00359006       1.32004521        1 
C       2.46493268      -0.44208524       0.66041959        6 
O       3.17911558      -0.06817246      -0.50677237        8 
H       3.01324124      -1.21278837       1.22137270        1 
H       2.30263940       0.41820098       1.31496788        1 
C       4.42188881       0.54482991      -0.22352596        6 
H       4.88099659       0.79732233      -1.17943507        1 
H       5.08802638      -0.13418101       0.32732628        1 
H       4.28890447       1.46303375       0.36501537        1 
