35
Lattice="0.0 0.0 0.0 0.0 0.0 0.0 0.0 0.0 0.0" Properties=species:S:1:pos:R:3:Z:I:1 pbc="F F F"
C       0.68470781      -0.51168584       0.58215879        6 
C      -0.93142431      -0.48851172       0.48958755        6 
C       1.40000909       0.66958512      -0.08508617        6 
C      -1.55709497       0.68198464      -0.29523827        6 
O       2.63609197       0.85977384       0.44334049        8 
O       1.00882221       1.31653322      -1.02207234        8 
O      -1.92315704       1.68213747       0.54582924        8 
O      -1.66574067       0.78224925      -1.48803064        8 
C      -2.43118659       2.86868931      -0.08822523        6 
C       3.43196476       1.87665097      -0.18973306        6 
C       1.05142817      -1.85547717      -0.19326480        6 
C       0.69815044      -1.68935099      -1.65783544        6 
C      -0.63443550      -1.67560666      -1.74510908        6 
C      -1.18936800      -1.83383638      -0.33735043        6 
C      -0.11176193      -2.76492189       0.25723466        6 
C       1.17597444      -0.62113064       2.04400187        6 
C      -1.64896076      -0.59248462       1.85074835        6 
H      -1.69247903       3.27049400      -0.78294064        1 
H       2.95399285       2.85279944      -0.09212572        1 
H      -1.22918281      -1.47872848      -2.62318333        1 
H      -2.62589883       3.56933580       0.72134082        1 
H      -3.35135721       2.64777330      -0.63217054        1 
H       4.38602117       1.86426311       0.33311632        1 
H       3.56881081       1.65245622      -1.24874644        1 
H      -2.22743142      -2.16036335      -0.26771732        1 
H       2.06637854      -2.18354551       0.03083466        1 
H      -1.41373240      -1.52537188       2.35980028        1 
H      -1.40526339       0.23755293       2.51189712        1 
H      -2.72886711      -0.57173797       1.68864716        1 
H       2.25539237      -0.75946516       2.06134685        1 
H       0.94885700       0.28253341       2.61329779        1 
H       0.72154308      -1.46531369       2.55797890        1 
H      -0.08567814      -3.73386520      -0.24283036        1 
H      -0.18005154      -2.92081138       1.33361682        1 
H       1.40713188      -1.49181168      -2.45010308        1 
