35
Lattice="0.0 0.0 0.0 0.0 0.0 0.0 0.0 0.0 0.0" Properties=species:S:1:pos:R:3:Z:I:1 pbc="F F F"
C       0.79782944       0.47020538      -0.55230063        6 
C      -0.79383846       0.59395664      -0.48747701        6 
C       1.34146746      -0.94217461      -0.37812819        6 
C      -1.49272603      -0.57774694       0.21663279        6 
O       2.57401454      -0.93126450       0.17786926        8 
O       0.78395851      -1.95286026      -0.72452576        8 
O      -2.75802222      -0.74530259      -0.23958237        8 
O      -1.03922245      -1.24952752       1.10743240        8 
C      -3.50679253      -1.80879552       0.37336315        6 
C       3.19734795      -2.21998967       0.32982685        6 
C       1.29708823       1.57126095       0.45619983        6 
C       0.84710951       1.20215937       1.85743440        6 
C      -0.47596622       1.37577578       1.91351733        6 
C      -0.93471141       1.83774395       0.53737104        6 
C       0.28085774       2.69485639       0.13873992        6 
C       1.37154536       0.80374020      -1.96784283        6 
C      -1.46842925       0.92701446      -1.82424932        6 
H      -3.00095858      -2.76365211       0.22276278        1 
H       3.34377763      -2.68982858      -0.64433674        1 
H      -1.13511376       1.09872389       2.72447823        1 
H      -4.47495348      -1.80422381      -0.12352322        1 
H      -3.62359782      -1.63103228       1.44373197        1 
H       4.15448467      -2.02541342       0.80901541        1 
H       2.57802162      -2.86848926       0.95079319        1 
H      -1.92198786       2.29599787       0.48228437        1 
H       2.35433317       1.79849129       0.33409874        1 
H      -1.03338531       1.81644272      -2.27966350        1 
H      -1.37713901       0.10031861      -2.53138161        1 
H      -2.53009641       1.11471693      -1.67136573        1 
H       2.45833577       0.69645953      -1.94286837        1 
H       0.98210095       0.12045862      -2.72385895        1 
H       1.14962805       1.82233329      -2.28137885        1 
H       0.40473588       3.55908109       0.79254917        1 
H       0.27303260       3.03095546      -0.89806242        1 
H       1.48281806       0.76066295       2.61220801        1 
