35
Lattice="0.0 0.0 0.0 0.0 0.0 0.0 0.0 0.0 0.0" Properties=species:S:1:pos:R:3:Z:I:1 pbc="F F F"
C       0.79584396       0.42816274      -0.54344382        6 
C      -0.79503939       0.59444827      -0.47891663        6 
C       1.32301501      -0.98507513      -0.32009595        6 
C      -1.54014082      -0.53176167       0.25756332        6 
O       2.62458969      -0.95485652       0.05686868        8 
O       0.70835526      -2.01067098      -0.46059647        8 
O      -2.76597379      -0.75055171      -0.28016503        8 
O      -1.14969070      -1.13674012       1.22221148        8 
C      -3.54311401      -1.78649374       0.34411140        6 
C       3.24523662      -2.23826561       0.25340222        6 
C       1.33079056       1.55174971       0.42216403        6 
C       0.88588703       1.23914756       1.83782566        6 
C      -0.43292802       1.44169330       1.89739600        6 
C      -0.89325989       1.87181473       0.51137897        6 
C       0.33815769       2.68780545       0.07703972        6 
C       1.35991905       0.70608438      -1.97711786        6 
C      -1.46222335       0.91929918      -1.82201398        6 
H      -3.01694695      -2.74053527       0.28598963        1 
H       3.23046154      -2.81546283      -0.67275854        1 
H      -1.09108555       1.20574352       2.72154105        1 
H      -4.47503297      -1.82650313      -0.21655906        1 
H      -3.73469410      -1.54723171       1.39141172        1 
H       4.26838222      -2.02312941       0.55422169        1 
H       2.72309721      -2.79753011       1.03106992        1 
H      -1.86899879       2.35413859       0.45207969        1 
H       2.39174681       1.74830964       0.28085432        1 
H      -1.00981855       1.79177351      -2.29232594        1 
H      -1.39204986       0.07996325      -2.51628018        1 
H      -2.51933568       1.13234043      -1.67100745        1 
H       2.44538478       0.59556234      -1.95759582        1 
H       0.95983977      -0.00226421      -2.70478068        1 
H       1.13600697       1.71187102      -2.32647185        1 
H       0.48903548       3.56789018       0.70364291        1 
H       0.33100397       2.99426820      -0.96879802        1 
H       1.51788650       0.80790501       2.60186729        1 
