35
Lattice="0.0 0.0 0.0 0.0 0.0 0.0 0.0 0.0 0.0" Properties=species:S:1:pos:R:3:Z:I:1 pbc="F F F"
C      -0.30053117      -0.93209506       0.46729982        6 
C      -0.84276241       0.57749295       0.62061401        6 
C       1.02294939      -1.06365991      -0.30780305        6 
C       0.02110413       1.70278856       0.05322447        6 
O       2.03743147      -1.47894939       0.48164019        8 
O       1.17481549      -0.85497045      -1.48674918        8 
O       1.34013319       1.45467148       0.14786162        8 
O      -0.42128749       2.77386025      -0.28839601        8 
C       2.21877651       2.47638161      -0.35563341        6 
C       3.31598461      -1.59792662      -0.16040490        6 
C      -1.47547357      -1.56295932      -0.41499784        6 
C      -1.50970969      -0.88219676      -1.77650009        6 
C      -1.97403857       0.35770898      -1.59961979        6 
C      -2.24064809       0.52852771      -0.11608844        6 
C      -2.71136136      -0.89848727       0.23386587        6 
C      -0.19956230      -1.69932314       1.79879184        6 
C      -1.04392313       1.00976845       2.09642641        6 
H       2.01994158       2.65153989      -1.41358244        1 
H       3.62754564      -0.63391629      -0.56573578        1 
H      -2.03483949       1.15102861      -2.33131171        1 
H       3.22499891       2.08744973      -0.21629733        1 
H       2.08384388       3.40569888       0.19927414        1 
H       4.00234053      -1.92791227       0.61676911        1 
H       3.27402914      -2.32674027      -0.97150514        1 
H      -2.88449501       1.35907229       0.16633021        1 
H      -1.43670315      -2.65279070      -0.42750871        1 
H      -1.75487006       0.36338298       2.60977447        1 
H      -0.10547786       0.99810943       2.65473877        1 
H      -1.43873795       2.02736627       2.11660879        1 
H       0.10794159      -2.72878983       1.60733869        1 
H       0.53815278      -1.25944669       2.46836129        1 
H      -1.15691919      -1.73037266       2.31522141        1 
H      -3.63524498      -1.16051827      -0.28304698        1 
H      -2.83183432      -1.09269558       1.30031560        1 
H      -1.12633654      -1.31384570      -2.68860957        1 
