35
Lattice="0.0 0.0 0.0 0.0 0.0 0.0 0.0 0.0 0.0" Properties=species:S:1:pos:R:3:Z:I:1 pbc="F F F"
C       1.23392149      -0.15637902      -0.38912689        6 
C       0.06960952       0.94163413      -0.59247381        6 
C       0.69559253      -1.59089061      -0.27351994        6 
C      -1.33276359       0.33785845      -0.55932941        6 
O      -0.03502476      -1.80019771       0.84148084        8 
O       0.86705465      -2.44914761      -1.10324786        8 
O      -2.17594448       1.00947082       0.24976986        8 
O      -1.69619444      -0.57030933      -1.26887117        8 
C      -3.53980680       0.54861336       0.25424179        6 
C      -0.72253633      -3.06232043       0.90763196        6 
C       1.94781680       0.39185130       0.91826390        6 
C       0.99800741       0.34497249       2.10567332        6 
C       0.06458138       1.27923976       1.91278804        6 
C       0.36730893       1.95799352       0.58616685        6 
C       1.91016106       1.91286914       0.62856833        6 
C       2.24769638      -0.19621288      -1.54928450        6 
C       0.11635391       1.67156365      -1.95407090        6 
H      -3.97216412       0.62458937      -0.74456578        1 
H      -0.01597593      -3.89168779       0.85741588        1 
H      -0.81860579       1.45918701       2.50791439        1 
H      -4.06361209       1.19918137       0.95117542        1 
H      -3.58793774      -0.48953254       0.58635833        1 
H      -1.24279406      -3.05742345       1.86349303        1 
H      -1.43096143      -3.13843490       0.08102419        1 
H      -0.10238738       2.92747359       0.42524704        1 
H       2.92512415      -0.06693691       1.06910632        1 
H       1.04269636       2.23239935      -2.07706455        1 
H       0.01456027       0.97132056      -2.78333618        1 
H      -0.71122455       2.38444635      -2.01075663        1 
H       3.03079554      -0.92138930      -1.32077225        1 
H       1.77490883      -0.51783781      -2.47603750        1 
H       2.72060675       0.76955385      -1.71407467        1 
H       2.31360351       2.49883111       1.45486709        1 
H       2.40101333       2.21290979      -0.29672917        1 
H       1.03490060      -0.39282264       2.89404337        1 
