35
Lattice="0.0 0.0 0.0 0.0 0.0 0.0 0.0 0.0 0.0" Properties=species:S:1:pos:R:3:Z:I:1 pbc="F F F"
C       0.78242832       0.39639757      -0.69250625        6 
C      -0.74782373       0.77711366      -0.38071802        6 
C       1.09138257      -1.07445453      -0.44500307        6 
C      -1.50789697      -0.35175922       0.33280810        6 
O       2.26759938      -1.26092296       0.18228011        8 
O       0.39632494      -1.98395537      -0.83171932        8 
O      -2.70385693      -0.60904767      -0.23711326        8 
O      -1.12560395      -0.93626914       1.31736247        8 
C      -3.46070814      -1.67876923       0.35551925        6 
C       2.63161791      -2.63308599       0.42892208        6 
C       1.58871961       1.42874858       0.18937829        6 
C       1.35258105       1.11536862       1.65553065        6 
C       0.08785431       1.44054609       1.93460848        6 
C      -0.54067752       1.97750444       0.65618284        6 
C       0.69173349       2.67764336       0.04041115        6 
C       1.17393058       0.57230380      -2.18366392        6 
C      -1.53585290       1.27389963      -1.60357211        6 
H      -2.89044872      -2.60775337       0.31640561        1 
H       2.74903985      -3.17225812      -0.51246295        1 
H      -0.44863871       1.24690830       2.85223736        1 
H      -4.36686604      -1.75687832      -0.24185977        1 
H      -3.70368449      -1.44807341       1.39402747        1 
H       3.57571574      -2.58995507       0.96747371        1 
H       1.86415390      -3.12132200       1.03059767        1 
H      -1.44847513       2.56935067       0.77604082        1 
H       2.62819630       1.51682129      -0.12269375        1 
H      -1.04555772       2.12023120      -2.08442215        1 
H      -1.66364920       0.48534104      -2.34569042        1 
H      -2.53176251       1.59632064      -1.29811509        1 
H       2.22553677       0.30151963      -2.31083563        1 
H       0.57921105      -0.07480437      -2.82914855        1 
H       1.05458987       1.60229772      -2.51623383        1 
H       1.03888695       3.51055821       0.65253376        1 
H       0.55327006       3.02093714      -0.98520578        1 
H       2.05389258       0.59882736       2.29446333        1 
