35
Lattice="0.0 0.0 0.0 0.0 0.0 0.0 0.0 0.0 0.0" Properties=species:S:1:pos:R:3:Z:I:1 pbc="F F F"
C      -0.57153898       0.36437871       0.70940906        6 
C       0.94748587       0.65960825       0.33050326        6 
C      -1.22043710      -0.80356630      -0.05446643        6 
C       1.78056984      -0.48058444      -0.24585795        6 
O      -2.56094301      -0.79498509       0.17925619        8 
O      -0.70666139      -1.63886879      -0.75179664        8 
O       1.60670653      -1.62199790       0.44839805        8 
O       2.69537257      -0.31752182      -1.01963386        8 
C       2.35256802      -2.76252835      -0.00147153        6 
C      -3.32342809      -1.81261714      -0.48931827        6 
C      -1.28032376       1.66652962       0.06583907        6 
C      -1.23566073       1.44325987      -1.44323957        6 
C       0.04021994       1.56073452      -1.82469242        6 
C       0.85533893       1.91940275      -0.59433939        6 
C      -0.19414094       2.74698701       0.18918811        6 
C      -0.86764935       0.21383632       2.20625362        6 
C       1.81455645       1.02761769       1.58060727        6 
H       2.03392856      -3.03834584      -1.00835646        1 
H      -3.00754440      -2.80572190      -0.16535566        1 
H       0.46003903       1.35198363      -2.79901134        1 
H       2.11426626      -3.56075370       0.69851560        1 
H       3.42343901      -2.55388206      -0.00017292        1 
H      -4.35883636      -1.63056363      -0.20829367        1 
H      -3.20060281      -1.73568347      -1.57117576        1 
H       1.82740831       2.37004016      -0.78208543        1 
H      -2.25803352       1.86278725       0.50070876        1 
H       1.41099080       1.87290090       2.13366738        1 
H       1.90545391       0.18300694       2.26352982        1 
H       2.81660939       1.29697474       1.24014903        1 
H      -1.93789617       0.07836244       2.35934315        1 
H      -0.34745315      -0.65167076       2.62315289        1 
H      -0.55418879       1.09936531       2.75890132        1 
H      -0.47084488       3.66190512      -0.33654935        1 
H       0.08512774       2.99423076       1.21240883        1 
H      -2.07337560       1.11503736      -2.04460545        1 
