35
Lattice="0.0 0.0 0.0 0.0 0.0 0.0 0.0 0.0 0.0" Properties=species:S:1:pos:R:3:Z:I:1 pbc="F F F"
C       0.78512585       0.58426625      -0.52856288        6 
C      -0.81164876       0.56425983      -0.57217919        6 
C       1.40198715      -0.67565944       0.08678727        6 
C      -1.41533889      -0.83253483      -0.47254633        6 
O       2.72801514      -0.75182361      -0.17786761        8 
O       0.84148822      -1.48090560       0.78694186        8 
O      -2.44454755      -0.88619114       0.39667444        8 
O      -1.06802171      -1.76768914      -1.15134814        8 
C      -3.08892609      -2.16828602       0.51760263        6 
C       3.41648719      -1.87003588       0.40985987        6 
C       1.03612286       1.73976857       0.56696292        6 
C       0.59804001       1.19669484       1.92032068        6 
C      -0.73357937       1.09463221       1.89484270        6 
C      -1.20823978       1.60290147       0.54370903        6 
C      -0.14061490       2.69161576       0.28105483        6 
C       1.45794316       0.93247069      -1.86179414        6 
C      -1.40197985       1.04388185      -1.93225977        6 
H      -3.49921138      -2.48276891      -0.44348894        1 
H       3.00806184      -2.80820892       0.03098552        1 
H      -1.37178225       0.62987394       2.63256989        1 
H      -3.88438155      -2.02600452       1.24615270        1 
H      -2.37389121      -2.91489725       0.86550251        1 
H       4.45732040      -1.75719430       0.11398783        1 
H       3.32012444      -1.85238057       1.49663787        1 
H      -2.25435042       1.89881660       0.48648616        1 
H       2.04644791       2.14246996       0.50734946        1 
H      -1.13089671       2.07166548      -2.16729087        1 
H      -1.08048054       0.40061504      -2.75129543        1 
H      -2.49330680       0.99717308      -1.87991191        1 
H       2.53454945       1.02619702      -1.72712050        1 
H       1.27917950       0.15343789      -2.60598671        1 
H       1.08461778       1.87575271      -2.26107236        1 
H      -0.19270742       3.50625295       1.00435051        1 
H      -0.14550191       3.10626894      -0.72712992        1 
H       1.26680396       0.82476304       2.68493035        1 
