35
Lattice="0.0 0.0 0.0 0.0 0.0 0.0 0.0 0.0 0.0" Properties=species:S:1:pos:R:3:Z:I:1 pbc="F F F"
C       0.75258950      -0.56648197       0.58282388        6 
C      -0.84467110      -0.68538808       0.53930368        6 
C       1.29363141       0.79152810       0.11877038        6 
C      -1.56891210       0.66486866       0.51586991        6 
O       2.64645020       0.74525982       0.03890622        8 
O       0.66890302       1.78282280      -0.15960136        8 
O      -2.24151578       0.87639637      -0.63190798        8 
O      -1.60449716       1.41997669       1.45624351        8 
C      -2.90456469       2.14818510      -0.74043020        6 
C       3.28829735       1.94627275      -0.42255115        6 
C       1.17171370      -1.61373088      -0.55886698        6 
C       0.80134580      -0.96658721      -1.88532290        6 
C      -0.53262674      -0.95541227      -1.95878489        6 
C      -1.07143262      -1.62760606      -0.70510197        6 
C       0.05260682      -2.66477367      -0.46310599        6 
C       1.38374673      -0.91769561       1.93816475        6 
C      -1.44600669      -1.36735612       1.79851745        6 
H      -3.65695098       2.25672031       0.04230926        1 
H       3.05335080       2.78327794       0.23636864        1 
H      -1.14627088      -0.47753527      -2.70802000        1 
H      -3.37103739       2.14916388      -1.72367624        1 
H      -2.17393668       2.95354821      -0.65665511        1 
H       4.35447423       1.73052212      -0.40482464        1 
H       2.96214517       2.18704231      -1.43608016        1 
H      -2.09367738      -1.99879559      -0.76796100        1 
H       2.20122008      -1.94953866      -0.45204828        1 
H      -1.05235325      -2.36766866       1.96417241        1 
H      -1.26883432      -0.76661242       2.68908835        1 
H      -2.52847193      -1.45526729       1.66900212        1 
H       2.46985899      -0.86108453       1.86734091        1 
H       1.05461441      -0.22565946       2.71681311        1 
H       1.11694138      -1.92873004       2.24760323        1 
H       0.11551559      -3.40133750      -1.26612878        1 
H       0.00308177      -3.18640248       0.49260145        1 
H       1.50176698      -0.49547248      -2.56226389        1 
