35
Lattice="0.0 0.0 0.0 0.0 0.0 0.0 0.0 0.0 0.0" Properties=species:S:1:pos:R:3:Z:I:1 pbc="F F F"
C       0.82627229       0.54208780      -0.49343389        6 
C      -0.78323749       0.44001998      -0.59653583        6 
C       1.63412823      -0.74432032      -0.30702404        6 
C      -1.47643810      -0.86676543      -0.16085631        6 
O       2.66721438      -0.54314266       0.55571709        8 
O       1.44786915      -1.79426481      -0.85790705        8 
O      -2.73934055      -0.56839308       0.27084087        8 
O      -1.10334311      -2.00189394      -0.26146785        8 
C      -3.57297314      -1.69538582       0.58154091        6 
C       3.52452205      -1.67905842       0.76500621        6 
C       1.03002411       1.60725845       0.64216985        6 
C       0.47508651       1.02116082       1.93219213        6 
C      -0.85733867       1.01211035       1.82575368        6 
C      -1.20769375       1.56961621       0.45000003        6 
C      -0.09018914       2.61107549       0.29445573        6 
C       1.46849336       1.07665896      -1.81144101        6 
C      -1.34833167       0.72376080      -2.00380394        6 
H      -3.71116001      -2.32635119      -0.29876012        1 
H       4.00719945      -1.97362454      -0.16856410        1 
H      -1.57273439       0.58214232       2.51309452        1 
H      -4.52392492      -1.27360588       0.90137595        1 
H      -3.13056870      -2.29417480       1.37939202        1 
H       4.26497563      -1.35459383       1.49331921        1 
H       2.94998771      -2.52378878       1.14818197        1 
H      -2.23306092       1.90176195       0.31021484        1 
H       2.05003647       1.98239180       0.68560690        1 
H      -1.06388734       1.71346011      -2.36208922        1 
H      -0.99901696      -0.01853051      -2.72463093        1 
H      -2.43871567       0.68283540      -1.97500114        1 
H       2.54740504       1.17386930      -1.66539523        1 
H       1.30113277       0.38339307      -2.63599407        1 
H       1.08769561       2.05514352      -2.09767714        1 
H      -0.16898564       3.41220922       1.03095085        1 
H      -0.01984936       3.04959842      -0.70144071        1 
H       1.07806834       0.60148087       2.72527727        1 
