35
Lattice="0.0 0.0 0.0 0.0 0.0 0.0 0.0 0.0 0.0" Properties=species:S:1:pos:R:3:Z:I:1 pbc="F F F"
C       0.59510073      -0.77931347      -0.53581919        6 
C       0.55251911       0.84193517      -0.50557114        6 
C      -0.48439219      -1.58182627       0.20252202        6 
C      -0.58244346       1.54812489       0.24726578        6 
O      -1.72352595      -1.34535312      -0.26034636        8 
O      -0.24737889      -2.46712220       0.99180212        8 
O      -1.78966155       1.31176040      -0.29374161        8 
O      -0.41325355       2.37243056       1.11605816        8 
C      -2.89727155       2.02721170       0.27580347        6 
C      -2.77306928      -2.17334389       0.26686535        6 
C       1.99013544      -1.06738177       0.14770806        6 
C       1.88210463      -0.64646691       1.60750537        6 
C       1.84246312       0.68846004       1.63658797        6 
C       1.92519519       1.17735870       0.19759178        6 
C       2.84165264       0.09222702      -0.40452006        6 
C       0.56331875      -1.37080295      -1.96719401        6 
C       0.50679177       1.48272000      -1.91533380        6 
H      -3.00176162       1.79238753       1.33627671        1 
H      -2.82271575      -2.08910570       1.35329209        1 
H       1.66658002       1.32800859       2.48851666        1 
H      -3.77201327       1.69177069      -0.27778479        1 
H      -2.76002915       3.10381684       0.16057644        1 
H      -3.68855679      -1.80155221      -0.18905293        1 
H      -2.60808792      -3.21810162      -0.00305553        1 
H       2.21340267       2.21885259       0.06312056        1 
H       2.33523652      -2.08425380      -0.03261788        1 
H       1.37520192       1.20798359      -2.51269037        1 
H      -0.39487118       1.19790550      -2.45648997        1 
H       0.50951304       2.57155289      -1.81465142        1 
H       0.63204133      -2.46052665      -1.90898681        1 
H      -0.36274096      -1.11835779      -2.48343655        1 
H       1.40315520      -1.02119766      -2.56621707        1 
H       3.84250214       0.11098194       0.02852356        1 
H       2.92644689       0.11788757      -1.49241274        1 
H       1.74681522      -1.33308715       2.42988790        1 
