35
Lattice="0.0 0.0 0.0 0.0 0.0 0.0 0.0 0.0 0.0" Properties=species:S:1:pos:R:3:Z:I:1 pbc="F F F"
C       0.36893223      -0.86493232       0.55722432        6 
C      -1.15228567      -0.34686201       0.44692655        6 
C       1.41634651       0.24481010       0.47334369        6 
C      -1.31242086       1.18273205       0.34317338        6 
O       2.55127127      -0.19415088      -0.11239653        8 
O       1.30627147       1.35367104       0.93617009        8 
O      -0.85722663       1.69177378      -0.81671451        8 
O      -1.84590862       1.86220325       1.18594467        8 
C      -0.88005092       3.12478059      -0.92180218        6 
C       3.63067269       0.75463398      -0.18469156        6 
C       0.46750584      -1.90485885      -0.63157402        6 
C       0.42248826      -1.12816844      -1.93540413        6 
C      -0.81828151      -0.65308906      -2.06938800        6 
C      -1.62592368      -1.11569921      -0.86448858        6 
C      -0.95902169      -2.49459355      -0.63191596        6 
C       0.69425478      -1.55899859       1.90202883        6 
C      -2.03706486      -0.77218595       1.63499832        6 
H      -1.89968033       3.50200939      -0.83064638        1 
H       3.94051834       1.05819156       0.81651193        1 
H      -1.18364438       0.02063784      -2.83029325        1 
H      -0.47388083       3.34816502      -1.90648674        1 
H      -0.25866879       3.56204932      -0.13915117        1 
H       4.43856611       0.23650671      -0.69677750        1 
H       3.32153176       1.63700603      -0.74693415        1 
H      -2.70971078      -1.09610186      -0.98145928        1 
H       1.29777215      -2.59774999      -0.50999326        1 
H      -2.04907817      -1.85120124       1.77555785        1 
H      -1.71109866      -0.30168894       2.56159259        1 
H      -3.06277411      -0.44541769       1.45587320        1 
H       1.73392964      -1.89475968       1.89197970        1 
H       0.56270583      -0.87785158       2.74424949        1 
H       0.06471933      -2.43351455       2.06507356        1 
H      -1.12037375      -3.17598646      -1.46840172        1 
H      -1.24904382      -2.99019255       0.29432870        1 
H       1.27990633      -0.91980111      -2.55961010        1 
