35
Lattice="0.0 0.0 0.0 0.0 0.0 0.0 0.0 0.0 0.0" Properties=species:S:1:pos:R:3:Z:I:1 pbc="F F F"
C      -0.60533748      -0.81554910       0.62326710        6 
C      -0.96197897       0.74994560       0.36210731        6 
C       0.90894230      -1.06527864       0.69697753        6 
C       0.30271015       1.62132468       0.31023429        6 
O       1.43482821      -1.62028140      -0.41041040        8 
O       1.56477435      -0.86890754       1.69307587        8 
O       0.97479048       1.52606677      -0.85466646        8 
O       0.70146071       2.29026769       1.23177561        8 
C       2.22087568       2.24187785      -0.92381167        6 
C       2.84144068      -1.91463876      -0.36235266        6 
C      -1.34229726      -1.50527524      -0.60605736        6 
C      -0.68650115      -1.10787385      -1.91886042        6 
C      -0.96163423       0.17934452      -2.13306184        6 
C      -1.81256451       0.66343935      -0.97147728        6 
C      -2.61678649      -0.63401194      -0.69852668        6 
C      -1.16490382      -1.36715072       1.94873073        6 
C      -1.83368473       1.36988489       1.47421352        6 
H       2.05301994       3.31538566      -0.82365746        1 
H       3.05884517      -2.61324332       0.44692227        1 
H      -0.58358171       0.80970873      -2.92442735        1 
H       2.63239755       2.00748526      -1.90342362        1 
H       2.89270714       1.91174263      -0.13003906        1 
H       3.07590372      -2.35829921      -1.32773479        1 
H       3.41851803      -1.00148671      -0.20930729        1 
H      -2.38540969       1.57485378      -1.14672514        1 
H      -1.48177606      -2.57533845      -0.44910605        1 
H      -2.77414120       0.83707218       1.60109320        1 
H      -1.30966566       1.39237183       2.42793585        1 
H      -2.06860227       2.40355625       1.20941684        1 
H      -0.90530823      -2.42565671       2.03613306        1 
H      -0.73656209      -0.85100962       2.80644005        1 
H      -2.24991631      -1.28735162       1.99290183        1 
H      -3.24297187      -0.91156021      -1.54724976        1 
H      -3.22588036      -0.61685896       0.20424845        1 
H      -0.04147569      -1.74767573      -2.50139238        1 
