35
Lattice="0.0 0.0 0.0 0.0 0.0 0.0 0.0 0.0 0.0" Properties=species:S:1:pos:R:3:Z:I:1 pbc="F F F"
C       0.78742380       0.49791456      -0.53924736        6 
C      -0.81137482       0.43834350      -0.47229180        6 
C       1.54659239      -0.63152819       0.18211640        6 
C      -1.45190862      -0.93688354      -0.26905679        6 
O       2.81678987      -0.73946043      -0.29351730        8 
O       1.15033043      -1.31586626       1.08700406        8 
O      -2.77540268      -0.78467355       0.01246830        8 
O      -0.92510725      -2.01582173      -0.30950599        8 
C      -3.51812833      -2.00110634       0.20178529        6 
C       3.62703938      -1.74537652       0.33758773        6 
C       1.04767162       1.77924717       0.42648260        6 
C       0.71657911       1.35797184       1.85243425        6 
C      -0.60842296       1.20339344       1.92491677        6 
C      -1.18537078       1.55906538       0.56747963        6 
C      -0.18241274       2.65757637       0.13411206        6 
C       1.36820379       0.74918998      -1.93695819        6 
C      -1.45780443       0.82790036      -1.84967766        6 
H      -3.49415751      -2.60918647      -0.70447870        1 
H       3.17358291      -2.73036964       0.21549649        1 
H      -1.17637882       0.79053398       2.74749656        1 
H      -4.53637447      -1.68792496       0.42375349        1 
H      -3.10323769      -2.57871458       1.02908796        1 
H       4.59008985      -1.70048958      -0.16702301        1 
H       3.74065114      -1.53709342       1.40288233        1 
H      -2.24466288       1.80580716       0.54402916        1 
H       2.03453033       2.20932319       0.26058259        1 
H      -1.12599277       1.79491929      -2.21881967        1 
H      -1.23230134       0.08346629      -2.61647584        1 
H      -2.54028130       0.86996570      -1.73040662        1 
H       2.44682213       0.87763304      -1.87602619        1 
H       1.17415534      -0.09395172      -2.60433464        1 
H       0.94890052       1.64647946      -2.39038869        1 
H      -0.22441020       3.52898839       0.78831414        1 
H      -0.27016823       2.98363215      -0.90143839        1 
H       1.44573126       1.08762513       2.60361462        1 
