35
Lattice="0.0 0.0 0.0 0.0 0.0 0.0 0.0 0.0 0.0" Properties=species:S:1:pos:R:3:Z:I:1 pbc="F F F"
C      -0.57026269       0.60467352      -0.76759746        6 
C      -0.62323537      -0.95896577      -0.32936429        6 
C       0.77819217       1.30948996      -0.54442412        6 
C       0.57322853      -1.53097821       0.44191281        6 
O       0.77357679       2.15713309       0.50672109        8 
O       1.74531512       1.16599235      -1.25054223        8 
O       1.72710434      -1.38365804      -0.22461619        8 
O       0.48400895      -2.16460528       1.46826832        8 
C       2.89174648      -1.98914838       0.36119147        6 
C       2.00719402       2.85408450       0.75495511        6 
C      -1.77782744       1.19312505       0.06589224        6 
C      -1.48693849       1.06986871       1.55602306        6 
C      -1.56266470      -0.22345380       1.87775846        6 
C      -1.89770677      -0.98562185       0.60422769        6 
C      -2.80852050       0.04901912      -0.08763655        6 
C      -0.83260535       0.82176406      -2.27920635        6 
C      -0.80148984      -1.92978175      -1.51885053        6 
H       3.06421970      -1.59539602       1.36387551        1 
H       2.28057183       3.46603375      -0.10590652        1 
H      -1.33309456      -0.68733566       2.82535133        1 
H       3.71347339      -1.72900195      -0.30194038        1 
H       2.76836581      -3.07213101       0.41963546        1 
H       1.81733670       3.47704210       1.62638268        1 
H       2.81051525       2.14399099       0.95697548        1 
H      -2.28887703      -1.99298844       0.73873533        1 
H      -2.07376911       2.18351501      -0.28009137        1 
H      -1.73480308      -1.74593720      -2.05109891        1 
H       0.02577807      -1.85129925      -2.22401039        1 
H      -0.83531116      -2.95651290      -1.14427222        1 
H      -0.86474048       1.89506771      -2.48689524        1 
H      -0.03256603       0.39506823      -2.88247431        1 
H      -1.78178870       0.39662421      -2.59775598        1 
H      -3.72039327       0.23741224       0.48034342        1 
H      -3.07615241      -0.19578968      -1.11654121        1 
H      -1.18628286       1.89062599       2.18935174        1 
