35
Lattice="0.0 0.0 0.0 0.0 0.0 0.0 0.0 0.0 0.0" Properties=species:S:1:pos:R:3:Z:I:1 pbc="F F F"
C       0.09582725      -0.80677836       0.59539666        6 
C      -1.08320867       0.26759729       0.44235069        6 
C       1.37314124      -0.48601386      -0.19706662        6 
C      -0.73340774       1.66148133      -0.07850061        6 
O       2.47825250      -0.99078190       0.40285376        8 
O       1.42750127       0.07093821      -1.26507418        8 
O       0.51554831       2.03854548       0.25393108        8 
O      -1.56331649       2.44834456      -0.47200077        8 
C       0.89028728       3.37948185      -0.10049415        6 
C       3.70984527      -0.82002304      -0.31893871        6 
C      -0.56890579      -2.05866810      -0.18885665        6 
C      -0.66588770      -1.70338344      -1.66438066        6 
C      -1.60328469      -0.76008516      -1.78973491        6 
C      -2.16807111      -0.49129476      -0.40898606        6 
C      -2.05230057      -1.90741560       0.20408388        6 
C       0.42248854      -1.20504034       2.04041286        6 
C      -1.71778738       0.64741171       1.81808337        6 
H       0.81526109       3.51681151      -1.18014950        1 
H       3.90488346       0.23822327      -0.49807103        1 
H      -1.84955352      -0.19234735      -2.67638268        1 
H       1.92302508       3.48618081       0.22431249        1 
H       0.24867663       4.10467472       0.40258897        1 
H       4.48027136      -1.25131579       0.31687419        1 
H       3.66700856      -1.34056659      -1.27723060        1 
H      -3.13811371       0.00085261      -0.37561851        1 
H      -0.07263165      -2.99771609       0.05565872        1 
H      -2.10365712      -0.22178883       2.34640992        1 
H      -0.99488411       1.14549880       2.46638826        1 
H      -2.54689569       1.33342910       1.64186246        1 
H       1.15967941      -2.00635714       2.05040134        1 
H       0.83855239      -0.36659616       2.60285249        1 
H      -0.46283092      -1.56070835       2.56556305        1 
H      -2.68570526      -2.62949625      -0.31286069        1 
H      -2.24678777      -1.96633733       1.27515757        1 
H       0.00766706      -2.05860093      -2.43173136        1 
