35
Lattice="0.0 0.0 0.0 0.0 0.0 0.0 0.0 0.0 0.0" Properties=species:S:1:pos:R:3:Z:I:1 pbc="F F F"
C       0.67450593      -0.38166923       0.66768085        6 
C      -0.88125216      -0.70463974       0.42504498        6 
C       1.16203027       0.92309462       0.03493265        6 
C      -1.67672543       0.37806406      -0.31880338        6 
O       2.47981246       1.10769750       0.29079325        8 
O       0.53330731       1.68421435      -0.65635897        8 
O      -2.06167977       1.36169941       0.52277245        8 
O      -1.96835396       0.36256924      -1.48791261        8 
C      -2.70618248       2.48700254      -0.09725286        6 
C       3.08119459       2.25862699      -0.32876941        6 
C       1.38829609      -1.59908880      -0.06974510        6 
C       1.16652897      -1.41919029      -1.56115599        6 
C      -0.12681454      -1.65468461      -1.79977727        6 
C      -0.78387263      -2.00969478      -0.47293870        6 
C       0.39308283      -2.74225767       0.21120480        6 
C       1.06370150      -0.35384914       2.16041532        6 
C      -1.67216838      -1.03457190       1.71224293        6 
H      -2.03337827       2.93960472      -0.82677022        1 
H       2.59867048       3.17464786       0.01544224        1 
H      -0.65907780      -1.52219267      -2.72882890        1 
H      -2.92325392       3.18084583       0.71237306        1 
H      -3.62683441       2.17709071      -0.59447913        1 
H       4.12582035       2.23844141      -0.02608208        1 
H       2.99298178       2.19610550      -1.41474430        1 
H      -1.73578321      -2.53591554      -0.53961517        1 
H       2.41841542      -1.72531755       0.25908211        1 
H      -1.27891653      -1.91686943       2.21553710        1 
H      -1.67385006      -0.20255387       2.41446598        1 
H      -2.71198725      -1.24459326       1.44801644        1 
H       2.14050953      -0.22087343       2.25702015        1 
H       0.57277161       0.46950988       2.68480653        1 
H       0.78693796      -1.28157925       2.65833130        1 
H       0.66776832      -3.65901110      -0.31237270        1 
H       0.24396158      -2.96499057       1.26856498        1 
H       1.90586650      -1.04846795      -2.25893763        1 
