35
Lattice="0.0 0.0 0.0 0.0 0.0 0.0 0.0 0.0 0.0" Properties=species:S:1:pos:R:3:Z:I:1 pbc="F F F"
C       0.65587849      -0.65755147      -0.72513687        6 
C       0.69104009       0.90720284      -0.33881911        6 
C      -0.69246247      -1.36852798      -0.51994491        6 
C      -0.58260570       1.53314784       0.22102598        6 
O      -1.07229942      -1.46327790       0.77015668        8 
O      -1.34314415      -1.85116157      -1.41603659        8 
O      -1.69662348       1.01925427      -0.33598004        8 
O      -0.59607639       2.51281092       0.92783311        8 
C      -2.94420821       1.64402924       0.01045926        6 
C      -2.34668145      -2.08345941       1.00058556        6 
C       1.78791297      -1.21484373       0.25400291        6 
C       1.36771538      -1.02282542       1.70574330        6 
C       1.41631850       0.28435692       1.97509042        6 
C       1.86957591       0.98620945       0.70727570        6 
C       2.83304351      -0.08011344       0.14461736        6 
C       1.05511068      -0.94989331      -2.18465316        6 
C       1.00072952       1.82683569      -1.55136376        6 
H      -3.14210641       1.52967659       1.07752035        1 
H      -2.35183246      -3.10845866       0.62656889        1 
H       1.08876750       0.78854552       2.87343533        1 
H      -3.69847582       1.12537339      -0.57753190        1 
H      -2.92274143       2.70559633      -0.23980084        1 
H      -2.48665009      -2.06751671       2.07961281        1 
H      -3.13790808      -1.52032772       0.50233080        1 
H       2.24771147       1.99968340       0.82673928        1 
H       2.10588516      -2.22033646      -0.02352787        1 
H       1.97027242       1.59486627      -1.98875166        1 
H       0.24108151       1.73514459      -2.32961786        1 
H       1.02353964       2.86435830      -1.21312162        1 
H       1.09783291      -2.02927400      -2.33837105        1 
H       0.32025282      -0.55615244      -2.88594384        1 
H       2.02987009      -0.53490889      -2.42969899        1 
H       3.68888563      -0.24614153       0.80001927        1 
H       3.19236746       0.11617357      -0.86556767        1 
H       1.00023166      -1.81090918       2.34635315        1 
