35
Lattice="0.0 0.0 0.0 0.0 0.0 0.0 0.0 0.0 0.0" Properties=species:S:1:pos:R:3:Z:I:1 pbc="F F F"
C      -0.68430448      -0.25891928      -0.74132932        6 
C       0.76008067      -0.86898580      -0.32116740        6 
C      -0.98459424       1.19394887      -0.33278596        6 
C       1.72560349       0.03431912       0.45517568        6 
O      -2.19385443       1.29896190       0.27066912        8 
O      -0.32708859       2.16347739      -0.61427610        8 
O       2.10916299       1.09650468      -0.26340738        8 
O       2.22559663      -0.25687375       1.51843306        8 
C       3.05457501       1.98469122       0.35212210        6 
C      -2.63273996       2.63476875       0.57073587        6 
C      -1.66026246      -1.28528904      -0.02847963        6 
C      -1.51093649      -1.10622141       1.47827519        6 
C      -0.31549161      -1.59073621       1.82484252        6 
C       0.34629611      -2.10837024       0.55733428        6 
C      -0.89336472      -2.61009018      -0.21099246        6 
C      -0.93422302      -0.24800665      -2.26775557        6 
C       1.59772572      -1.34796753      -1.53526650        6 
H       2.66126096       2.36321496       1.29674577        1 
H      -2.70643446       3.22726264      -0.34278190        1 
H       0.16642506      -1.54406617       2.79000790        1 
H       3.18770391       2.79861963      -0.35668356        1 
H       3.99989655       1.47059687       0.53638176        1 
H      -3.61045660       2.52049642       1.03424536        1 
H      -1.93721903       3.12124499       1.25602501        1 
H       1.16864831      -2.80744877       0.70082154        1 
H      -2.67562015      -1.23338251      -0.41812186        1 
H       1.09678605      -2.14301791      -2.08762200        1 
H       1.81619429      -0.52923811      -2.21938936        1 
H       2.54885305      -1.75077594      -1.17615490        1 
H      -1.94339424       0.12283572      -2.46708161        1 
H      -0.22779712       0.40612222      -2.77988924        1 
H      -0.86033813      -1.24801294      -2.69232758        1 
H      -1.38545801      -3.44386690       0.29193964        1 
H      -0.70476414      -2.88421845      -1.24994031        1 
H      -2.21916191      -0.58315700       2.10366777        1 
