35
Lattice="0.0 0.0 0.0 0.0 0.0 0.0 0.0 0.0 0.0" Properties=species:S:1:pos:R:3:Z:I:1 pbc="F F F"
C      -0.65870072       0.35058785       0.71644325        6 
C       0.89374119       0.70771233       0.39701150        6 
C      -1.22253991      -1.03058307       0.34784350        6 
C       1.81823842      -0.26039430      -0.35701739        6 
O      -2.47349820      -0.90274235      -0.17296986        8 
O      -0.73025889      -2.10837622       0.55099846        8 
O       1.73568197      -1.52638075       0.04853284        8 
O       2.67814184       0.13159978      -1.11686495        8 
C       2.65346549      -2.45993036      -0.54420260        6 
C      -3.16073658      -2.13105378      -0.46255092        6 
C      -1.40318121       1.50718209      -0.06639012        6 
C      -1.16007850       1.27346741      -1.55030641        6 
C       0.11893676       1.57227094      -1.79915558        6 
C       0.74607472       2.00831085      -0.48256616        6 
C      -0.46043036       2.70096607       0.17671545        6 
C      -1.00574359       0.43158391       2.22768276        6 
C       1.72030170       1.01247174       1.67445710        6 
H       2.56385574      -2.44588129      -1.63138830        1 
H      -3.22906406      -2.75524328       0.42990697        1 
H       0.66713213       1.43194867      -2.72015559        1 
H       2.36452993      -3.43086906      -0.14828175        1 
H       3.68091850      -2.21669843      -0.26698727        1 
H      -4.15173967      -1.83588032      -0.80176615        1 
H      -2.63874775      -2.68504775      -1.24502334        1 
H       1.67751980       2.56431064      -0.55770913        1 
H      -2.44188920       1.61472054       0.23767341        1 
H       1.28721257       1.82678519       2.25280347        1 
H       1.79839670       0.13323469       2.31593228        1 
H       2.72877796       1.31253663       1.38208311        1 
H      -2.07506345       0.24795171       2.36090791        1 
H      -0.46117521      -0.32095747       2.79957251        1 
H      -0.78648260       1.41357038       2.64317209        1 
H      -0.77407849       3.59033033      -0.37201127        1 
H      -0.31698220       2.96291490       1.22616920        1 
H      -1.88370692       0.84252149      -2.22798334        1 
