35
Lattice="0.0 0.0 0.0 0.0 0.0 0.0 0.0 0.0 0.0" Properties=species:S:1:pos:R:3:Z:I:1 pbc="F F F"
C      -0.36131892      -0.95070526       0.43981407        6 
C      -0.78989320       0.59265220       0.66097833        6 
C       0.96716961      -1.15045121      -0.30775389        6 
C       0.10322777       1.67291685       0.04793410        6 
O       1.99015715      -1.40618722       0.53561744        8 
O       1.10957096      -1.14226062      -1.50654685        8 
O       1.41262062       1.36731154       0.07643530        8 
O      -0.31034788       2.74670955      -0.32026102        8 
C       2.30642160       2.35147379      -0.47552642        6 
C       3.27575485      -1.57699169      -0.07779069        6 
C      -1.57333138      -1.46427552      -0.44968573        6 
C      -1.58737184      -0.71800051      -1.77709646        6 
C      -1.97606259       0.53653825      -1.53309547        6 
C      -2.20856177       0.65094033      -0.03610826        6 
C      -2.75775103      -0.75994067       0.25341685        6 
C      -0.30912874      -1.77211011       1.74609066        6 
C      -0.89728916       0.99715821       2.14890339        6 
H       2.09826883       2.49150324      -1.53715135        1 
H       3.54315710      -0.69073828      -0.65536324        1 
H      -2.00747883       1.36616027      -2.22481937        1 
H       3.30622055       1.94789192      -0.33233186        1 
H       2.19600154       3.30332752       0.04497432        1 
H       3.97329794      -1.72501069       0.74419498        1 
H       3.27438154      -2.44438274      -0.74009384        1 
H      -2.79732547       1.50363604       0.29584766        1 
H      -1.60111971      -2.55236919      -0.51581620        1 
H      -1.63212344       0.38797007       2.67479640        1 
H       0.06006168       0.90327621       2.66556581        1 
H      -1.21792711       2.03921432       2.21425741        1 
H      -0.07100282      -2.81232296       1.51164241        1 
H       0.45722541      -1.40787575       2.42779918        1 
H      -1.26480105      -1.76430874       2.26641409        1 
H      -3.70430131      -0.94204191      -0.25727792        1 
H      -2.87365289      -0.99646342       1.31178055        1 
H      -1.24352155      -1.12954090      -2.71378058        1 
