35
Lattice="0.0 0.0 0.0 0.0 0.0 0.0 0.0 0.0 0.0" Properties=species:S:1:pos:R:3:Z:I:1 pbc="F F F"
C       0.12818470      -1.09162825       0.23569923        6 
C      -0.88655179       0.03160625       0.83573539        6 
C       1.37830190      -0.46612995      -0.40078391        6 
C      -0.32381488       1.45980662       0.71953253        6 
O       2.52323800      -0.89682576       0.17228327        8 
O       1.38107026       0.32711681      -1.31195370        8 
O      -0.65585378       2.09607077      -0.40985722        8 
O       0.27903018       2.00419637       1.61831550        8 
C      -0.07580495       3.39440383      -0.61051295        6 
C       3.73682820      -0.32994397      -0.35226647        6 
C      -0.78806878      -1.78610707      -0.86567040        6 
C      -1.09830800      -0.81313441      -1.98607565        6 
C      -1.94162712       0.09975173      -1.50096785        6 
C      -2.19250683      -0.23848295      -0.03997751        6 
C      -2.15208301      -1.78112753      -0.13707664        6 
C       0.54502326      -2.14550247       1.27997308        6 
C      -1.21440292      -0.16327507       2.32776409        6 
H      -0.35289865       4.07156843       0.19846000        1 
H       3.73208758       0.75413831      -0.22976036        1 
H      -2.30641460       0.98375506      -2.00037392        1 
H      -0.47393142       3.74275090      -1.56135246        1 
H       1.01028538       3.30923274      -0.66347797        1 
H       4.53918657      -0.77877171       0.22913820        1 
H       3.84561872      -0.57091554      -1.41081860        1 
H      -3.07954310       0.20915925       0.40907546        1 
H      -0.38748097      -2.75489438      -1.16680391        1 
H      -1.67770852      -1.12949064       2.51981179        1 
H      -0.32573049      -0.06860796       2.94953885        1 
H      -1.91611280       0.61239390       2.64385699        1 
H       1.17465493      -2.90176735       0.80896265        1 
H       1.11876434      -1.70776460       2.09615180        1 
H      -0.31991438      -2.65124476       1.70470038        1 
H      -2.95029265      -2.17259857      -0.76849458        1 
H      -2.16261947      -2.30659344       0.81740778        1 
H      -0.62578884      -0.81822925      -2.95756971        1 
