35
Lattice="0.0 0.0 0.0 0.0 0.0 0.0 0.0 0.0 0.0" Properties=species:S:1:pos:R:3:Z:I:1 pbc="F F F"
C       0.76647821      -0.73426166       0.55298336        6 
C      -0.85763142      -0.65199920       0.50358344        6 
C       1.46490356       0.63215688       0.51554694        6 
C      -1.41517490       0.77791396       0.44084879        6 
O       2.15727160       0.85205119      -0.62373106        8 
O       1.46440381       1.41590564       1.43119347        8 
O      -1.95042133       1.09763796      -0.75834524        8 
O      -1.44310082       1.53185893       1.38055980        8 
C      -2.53711795       2.40795216      -0.85267344        6 
C       2.86034277       2.10463935      -0.69960729        6 
C       1.06881553      -1.67144862      -0.68618870        6 
C       0.69204920      -0.96030637      -1.97636037        6 
C      -0.63916826      -0.88722174      -2.01932850        6 
C      -1.17509442      -1.55098582      -0.75939392        6 
C      -0.11422637      -2.66227462      -0.59074155        6 
C       1.30828751      -1.38652714       1.84575654        6 
C      -1.54314782      -1.25263598       1.75212082        6 
H      -3.35099812       2.51372010      -0.13387530        1 
H       3.60523415       2.17467634       0.09453645        1 
H      -1.24823215      -0.38297656      -2.75407760        1 
H      -2.91141512       2.48422829      -1.87157171        1 
H      -1.78759440       3.17626187      -0.65834913        1 
H       3.33867084       2.10818726      -1.67692164        1 
H       2.16297881       2.93868118      -0.60882836        1 
H      -2.22048611      -1.85833218      -0.79177523        1 
H       2.07488785      -2.08913375      -0.65029682        1 
H      -1.27790377      -2.29763729       1.90286536        1 
H      -1.29201016      -0.68629099       2.64762747        1 
H      -2.62810979      -1.20450341       1.62290421        1 
H       2.39836204      -1.45070476       1.78440283        1 
H       1.05961065      -0.78904444       2.72221266        1 
H       0.92556139      -2.39634691       1.98301839        1 
H      -0.12618362      -3.37119405      -1.41988482        1 
H      -0.17415743      -3.21360458       0.34794506        1 
H       1.39866939      -0.52837195      -2.66847069        1 
