35
Lattice="0.0 0.0 0.0 0.0 0.0 0.0 0.0 0.0 0.0" Properties=species:S:1:pos:R:3:Z:I:1 pbc="F F F"
C       0.85308729      -0.78695959      -0.39797309        6 
C       0.55100261       0.77634500      -0.68281567        6 
C      -0.29132542      -1.71192521       0.03006927        6 
C      -0.90932113       1.25168100      -0.54719085        6 
O      -1.51738766      -1.17255058      -0.05279164        8 
O      -0.11669904      -2.88216541       0.28267154        8 
O      -1.32069966       1.43050753       0.72228417        8 
O      -1.59304243       1.57817030      -1.48945116        8 
C      -2.67824404       1.86253063       0.88651856        6 
C      -2.62850881      -2.05459877       0.19146268        6 
C       1.95361463      -0.73207028       0.73774436        6 
C       1.28693054      -0.22987773       2.00566466        6 
C       1.01496607       1.06454028       1.82052692        6 
C       1.49260268       1.44529179       0.42305143        6 
C       2.73623933       0.53088203       0.32936382        6 
C       1.42922577      -1.51394166      -1.64283323        6 
C       0.99260236       1.25001342      -2.08157680        6 
H      -2.84148929       2.82644967       0.40219152        1 
H      -2.62205754      -2.39507251       1.22772483        1 
H       0.47341155       1.72081121       2.48429103        1 
H      -2.82960080       1.94144029       1.96145526        1 
H      -3.36333097       1.12890486       0.45796382        1 
H      -3.51681335      -1.46144675      -0.01405416        1 
H      -2.58065190      -2.91828667      -0.47256490        1 
H       1.63751989       2.51098631       0.24422991        1 
H       2.50005691      -1.67007118       0.81590150        1 
H       2.04583590       1.05546406      -2.27015440        1 
H       0.40131543       0.78189676      -2.86705206        1 
H       0.83244146       2.32678997      -2.16137312        1 
H       1.65264755      -2.54692063      -1.37808204        1 
H       0.71460280      -1.52412879      -2.46943591        1 
H       2.34583797      -1.04447838      -1.99399221        1 
H       3.49637227       0.79545871       1.06522194        1 
H       3.19570923       0.48225866      -0.65769843        1 
H       1.00400127      -0.85338546       2.84333302        1 
