35
Lattice="0.0 0.0 0.0 0.0 0.0 0.0 0.0 0.0 0.0" Properties=species:S:1:pos:R:3:Z:I:1 pbc="F F F"
C       0.82724142      -0.64264136      -0.59480437        6 
C       0.33131686       0.89083581      -0.49632148        6 
C      -0.10170301      -1.63068450       0.10832440        6 
C      -0.97194908       1.02329644       0.29998226        6 
O      -1.29639554      -1.68793190      -0.53079674        8 
O       0.14911608      -2.28542491       1.08640640        8 
O      -1.93688661       1.67974216      -0.38174230        8 
O      -1.14683045       0.62145513       1.42562210        8 
C      -3.19144826       1.83455898       0.30262995        6 
C      -2.30195783      -2.51090710       0.08549245        6 
C       2.23320353      -0.57804150       0.13163066        6 
C       2.02014155      -0.28645556       1.60925931        6 
C       1.59985618       0.97643310       1.71019468        6 
C       1.53952972       1.55194408       0.30546968        6 
C       2.73405666       0.80621460      -0.33402160        6 
C       1.00113025      -1.16602607      -2.03817134        6 
C       0.18771414       1.57370703      -1.86852706        6 
H      -3.61796566       0.85867742       0.54044611        1 
H      -2.49667568      -2.16523234       1.10173560        1 
H       1.24476542       1.47787639       2.59868856        1 
H      -3.83373981       2.37525639      -0.38935455        1 
H      -3.05885003       2.39943629       1.22669984        1 
H      -3.18777112      -2.40187134      -0.53725947        1 
H      -1.98037841      -3.55317488       0.11332201        1 
H       1.52571529       2.63949004       0.22732600        1 
H       2.85564859      -1.44208373      -0.10025435        1 
H       1.11551187       1.52757343      -2.43584159        1 
H      -0.60233419       1.12000888      -2.46633106        1 
H      -0.06975398       2.62505233      -1.73352312        1 
H       1.31893755      -2.21197658      -2.00467447        1 
H       0.07051562      -1.12120949      -2.60322394        1 
H       1.76615678      -0.60857691      -2.57822176        1 
H       3.68233257       1.07692484       0.13055115        1 
H       2.81892114       0.92248924      -1.41517473        1 
H       2.07439786      -1.02530349       2.39381471        1 
