35
Lattice="0.0 0.0 0.0 0.0 0.0 0.0 0.0 0.0 0.0" Properties=species:S:1:pos:R:3:Z:I:1 pbc="F F F"
C       0.76900666      -0.46852207      -0.76659601        6 
C       0.47871258       1.03097608      -0.27200641        6 
C      -0.28600163      -1.54174231      -0.47833974        6 
C      -0.91723937       1.28170042       0.29028940        6 
O      -1.09574101      -1.25623018       0.55471301        8 
O      -0.33436443      -2.59884038      -1.06463140        8 
O      -1.85515070       1.11299298      -0.67178616        8 
O      -1.17601232       1.66667080       1.40294017        8 
C      -3.22002750       1.28176982      -0.26099473        6 
C      -2.03993462      -2.27185791       0.93317489        6 
C       2.04524743      -0.84562526       0.12703064        6 
C       1.59983450      -0.93783647       1.57800363        6 
C       1.31957502       0.30110354       1.99116745        6 
C       1.59141950       1.24143911       0.82795806        6 
C       2.78182451       0.50797030       0.16667690        6 
C       1.11738869      -0.57922698      -2.26048121        6 
C       0.64587256       2.09976936      -1.38261486        6 
H      -3.47364443       0.55500149       0.51312604        1 
H      -1.52136095      -3.19178905       1.20705112        1 
H       0.86745845       0.60007794       2.92497167        1 
H      -3.81754268       1.11095740      -1.15425947        1 
H      -3.38673406       2.28817320       0.12580645        1 
H      -2.57396675      -1.86286400       1.78798821        1 
H      -2.72525434      -2.48038980       0.10993264        1 
H       1.72534898       2.29082836       1.08694311        1 
H       2.57429405      -1.70755498      -0.27773970        1 
H       1.66653099       2.13810963      -1.75985456        1 
H      -0.02839477       1.92068044      -2.21825754        1 
H       0.41116770       3.08420623      -0.96801961        1 
H       1.37072320      -1.61166173      -2.49803363        1 
H       0.26932268      -0.29388131      -2.88689525        1 
H       1.96461226       0.05243068      -2.52478940        1 
H       3.65967721       0.47747533       0.81292066        1 
H       3.06959940       0.89176245      -0.81237443        1 
H       1.42376809      -1.86364053       2.10994935        1 
