35
Lattice="0.0 0.0 0.0 0.0 0.0 0.0 0.0 0.0 0.0" Properties=species:S:1:pos:R:3:Z:I:1 pbc="F F F"
C      -0.70938929       0.93594801       0.30863897        6 
C       0.68386918       0.24236806       0.74584788        6 
C      -1.66225732      -0.00095317      -0.44302040        6 
C       0.86540775      -1.18880581       0.23345280        6 
O      -2.42919068      -0.71613580       0.40013236        8 
O      -1.79049286      -0.04772681      -1.64362207        8 
O       2.14842247      -1.43384289      -0.11377277        8 
O       0.03043193      -2.06034109       0.25579708        8 
C       2.44416497      -2.78571352      -0.50921174        6 
C      -3.25873689      -1.72347657      -0.20006700        6 
C      -0.20087862       2.10665304      -0.61691949        6 
C       0.49875750       1.52221530      -1.83414070        6 
C       1.66344164       1.01327281      -1.42493991        6 
C       1.74376825       1.22115043       0.08136974        6 
C       1.02924270       2.58248535       0.19002037        6 
C      -1.50361802       1.52319929       1.49718486        6 
C       0.88626069       0.13048415       2.26961464        6 
H       2.22293251      -3.47945513       0.30342799        1 
H      -2.63262629      -2.47048144      -0.68973238        1 
H       2.37639862       0.44839641      -2.00784684        1 
H       3.50667357      -2.79285461      -0.74253921        1 
H       1.85601679      -3.06230877      -1.38556907        1 
H      -3.81117567      -2.17141717       0.62346065        1 
H      -3.94102663      -1.28029827      -0.92680254        1 
H       2.73288720       1.13035056       0.52623692        1 
H      -0.98402580       2.83611592      -0.82251930        1 
H       0.88833293       1.11179330       2.74466885        1 
H       0.10616092      -0.47854220       2.72960340        1 
H       1.85121302      -0.33975226       2.47601046        1 
H      -2.41570803       1.99496552       1.12212671        1 
H      -1.79951878       0.75105489       2.20375536        1 
H      -0.93640682       2.28357656       2.03116814        1 
H       1.57824658       3.37306509      -0.32345095        1 
H       0.81520620       2.90311170       1.21026668        1 
H       0.06181074       1.46165157      -2.81923563        1 
