35
Lattice="0.0 0.0 0.0 0.0 0.0 0.0 0.0 0.0 0.0" Properties=species:S:1:pos:R:3:Z:I:1 pbc="F F F"
C       1.13483719       0.30614507      -0.50272324        6 
C      -0.36253330       0.87670809      -0.45764119        6 
C       1.31254079      -1.20942686      -0.30536747        6 
C      -1.45829196      -0.17996320      -0.49439933        6 
O       0.58206786      -1.72310793       0.69914640        8 
O       2.12165976      -1.86760042      -0.91761275        8 
O      -2.58164777       0.26566293       0.11226916        8 
O      -1.38720813      -1.25781583      -1.03129281        8 
C      -3.71976092      -0.61342306       0.05580773        6 
C       0.64527754      -3.14858925       0.86230282        6 
C       1.76313223       1.06156103       0.77090901        6 
C       1.10471890       0.54205774       2.04091074        6 
C      -0.15474167       0.98650105       2.05254076        6 
C      -0.35261028       1.82442361       0.80204234        6 
C       1.06209204       2.43378823       0.67094810        6 
C       1.92044309       0.67862235      -1.76870907        6 
C      -0.72866330       1.72047643      -1.71811134        6 
H      -4.00994439      -0.79592883      -0.98026151        1 
H       1.67295597      -3.47720992       1.02143150        1 
H      -0.94151845       0.71834247       2.74429982        1 
H      -4.51351190      -0.09553778       0.58999309        1 
H      -3.49020373      -1.56573956       0.53603323        1 
H       0.03100967      -3.36689135       1.73381172        1 
H       0.23879643      -3.64026158      -0.02316451        1 
H      -1.19817721       2.50949125       0.81415758        1 
H       2.85244434       1.04529627       0.74973915        1 
H      -0.06206749       2.56975446      -1.84903909        1 
H      -0.69439572       1.11488436      -2.62518058        1 
H      -1.74417273       2.10643455      -1.60528087        1 
H       2.94324048       0.31387312      -1.68109569        1 
H       1.48733549       0.21108612      -2.65443267        1 
H       1.95338737       1.75537385      -1.92531148        1 
H       1.30703443       3.08233576       1.51275913        1 
H       1.24618892       2.97241603      -0.25878370        1 
H       1.55585141      -0.16276169       2.72491795        1 
