35
Lattice="0.0 0.0 0.0 0.0 0.0 0.0 0.0 0.0 0.0" Properties=species:S:1:pos:R:3:Z:I:1 pbc="F F F"
C       0.98492276       0.47318996      -0.58590147        6 
C      -0.57934959       0.75596150      -0.36118892        6 
C       1.56026186      -0.94297761      -0.37281206        6 
C      -1.52233156      -0.44884587      -0.40704733        6 
O       0.96341942      -1.66158320       0.58370572        8 
O       2.58644844      -1.30962101      -0.90437324        8 
O      -2.77481722      -0.06212641      -0.04289326        8 
O      -1.26233976      -1.59402900      -0.66892435        8 
C      -3.77781003      -1.09198811      -0.05117765        6 
C       1.48728968      -2.97802226       0.81352224        6 
C       1.59340826       1.33533621       0.64200186        6 
C       1.21573577       0.65334238       1.94885522        6 
C      -0.09920904       0.81394917       2.12226132        6 
C      -0.61570556       1.62829039       0.95147979        6 
C       0.61903577       2.52982490       0.69673465        6 
C       1.54603781       0.98447636      -1.91972570        6 
C      -1.17345701       1.62272785      -1.52693152        6 
H      -3.88351772      -1.51723981      -1.05081478        1 
H       2.53005001      -2.93242731       1.13246749        1 
H      -0.72210970       0.36381560       2.88363474        1 
H      -4.69993996      -0.60111005       0.25337858        1 
H      -3.51707521      -1.88754183       0.64873180        1 
H       0.86203563      -3.40272472       1.59604374        1 
H       1.41453185      -3.57567811      -0.09642778        1 
H      -1.57731312       2.11781833       1.09329155        1 
H       2.65179175       1.54578764       0.49310766        1 
H      -0.60790142       2.53269480      -1.70623206        1 
H      -1.20065029       1.05971119      -2.46270040        1 
H      -2.19525022       1.90353799      -1.27448574        1 
H       2.61275247       0.77406515      -1.96648081        1 
H       1.07790718       0.47784188      -2.76687416        1 
H       1.40146289       2.05712452      -2.03817838        1 
H       0.82376918       3.18683091       1.54266673        1 
H       0.57843887       3.12305390      -0.21556639        1 
H       1.88239700       0.04265079       2.54183192        1 
