35
Lattice="0.0 0.0 0.0 0.0 0.0 0.0 0.0 0.0 0.0" Properties=species:S:1:pos:R:3:Z:I:1 pbc="F F F"
C      -0.48341835      -0.88568968       0.46000470        6 
C      -0.65392375       0.71300535       0.63868880        6 
C       0.77935305      -1.42614354      -0.22036952        6 
C       0.30783203       1.67312623      -0.08462445        6 
O       1.88514894      -1.23752663       0.52288883        8 
O       0.77173228      -2.13871379      -1.19801799        8 
O       1.60062705       1.32327178      -0.02934358        8 
O      -0.06078990       2.70673220      -0.59399761        8 
C       2.52954044       2.23380145      -0.64554812        6 
C       3.09675865      -1.80621252       0.00629087        6 
C      -1.76939369      -1.26294388      -0.35988714        6 
C      -1.69121995      -0.58447544      -1.71870866        6 
C      -1.89416609       0.72250524      -1.52693034        6 
C      -2.08206233       0.93717121      -0.03006928        6 
C      -2.82106566      -0.36339233       0.32853964        6 
C      -0.50319359      -1.65337843       1.81146855        6 
C      -0.63949423       1.18567320       2.10595659        6 
H       2.29628084       2.35758280      -1.70401512        1 
H       3.32004153      -1.39873738      -0.98134788        1 
H      -1.82536637       1.51809067      -2.25454501        1 
H       3.50780760       1.77502806      -0.51798476        1 
H       2.49281205       3.20719835      -0.15447410        1 
H       3.87286411      -1.53171030       0.71787027        1 
H       3.01160038      -2.89182582      -0.06907761        1 
H      -2.53506543       1.88132059       0.26450566        1 
H      -1.95025334      -2.33675093      -0.37538516        1 
H      -1.42774725       0.70619982       2.68608356        1 
H       0.31874171       0.97373368       2.58360000        1 
H      -0.81101182       2.26420624       2.14110990        1 
H      -0.39222226      -2.72311868       1.61328729        1 
H       0.31457350      -1.35002940       2.46259308        1 
H      -1.44203196      -1.51967932       2.34666772        1 
H      -3.79583908      -0.42757483      -0.15741596        1 
H      -2.94826775      -0.53549229       1.39819546        1 
H      -1.42380308      -1.08887779      -2.63593966        1 
