35
Lattice="0.0 0.0 0.0 0.0 0.0 0.0 0.0 0.0 0.0" Properties=species:S:1:pos:R:3:Z:I:1 pbc="F F F"
C       0.94569095       0.62798707      -0.54385895        6 
C      -0.66207013       0.68529456      -0.43715733        6 
C       1.61731032      -0.75811581      -0.43720487        6 
C      -1.37224532      -0.66381699      -0.31690203        6 
O       1.50775882      -1.34365982       0.76544885        8 
O       2.32005185      -1.21421661      -1.31043408        8 
O      -2.70728787      -0.47017259      -0.16786587        8 
O      -0.88371328      -1.76453225      -0.28809006        8 
C      -3.50498206      -1.65597983      -0.00708743        6 
C       2.01249709      -2.68402370       0.85935994        6 
C       1.33453496       1.53799321       0.72144625        6 
C       0.89742591       0.85851636       2.01190034        6 
C      -0.43644136       0.90232997       2.06362256        6 
C      -0.91107751       1.61952916       0.81456658        6 
C       0.24292747       2.62949287       0.63484488        6 
C       1.51487205       1.26813060      -1.82271759        6 
C      -1.30747741       1.34471503      -1.69118947        6 
H      -3.41996345      -2.29583340      -0.88684761        1 
H       3.07432891      -2.72023910       0.61217254        1 
H      -1.08220586       0.42592731       2.78924901        1 
H      -4.52714060      -1.30242036       0.11125968        1 
H      -3.18738543      -2.21571650       0.87408128        1 
H       1.84495611      -2.98383903       1.89205444        1 
H       1.45569139      -3.33256355       0.18101397        1 
H      -1.92742442       2.00917834       0.83438267        1 
H       2.37416256       1.86266166       0.67995567        1 
H      -0.92070849       2.34587262      -1.86655569        1 
H      -1.12666811       0.75126823      -2.59020553        1 
H      -2.38420980       1.41923344      -1.54614039        1 
H       2.60403820       1.26136743      -1.77340225        1 
H       1.23515178       0.70477084      -2.71303239        1 
H       1.18860471       2.29866780      -1.94429402        1 
H       0.30071174       3.33519241       1.46453786        1 
H       0.22428939       3.18353459      -0.30317065        1 
H       1.56148943       0.34712277       2.69198943        1 
