35
Lattice="0.0 0.0 0.0 0.0 0.0 0.0 0.0 0.0 0.0" Properties=species:S:1:pos:R:3:Z:I:1 pbc="F F F"
C       0.91628673       0.31906792      -0.75447544        6 
C      -0.53756832       0.89125709      -0.30367229        6 
C       1.09911841      -1.21094233      -0.68332843        6 
C      -1.51885135      -0.16566194       0.22603612        6 
O       1.28578500      -1.69837427       0.54717509        8 
O       1.22076156      -1.90296520      -1.67146770        8 
O      -2.77140602       0.01768037      -0.25996680        8 
O      -1.27217298      -1.04569481       1.01265061        8 
C      -3.77138621      -0.90057993       0.21364369        6 
C       1.41116437      -3.12474429       0.65591373        6 
C       1.86939585       1.08945831       0.27503864        6 
C       1.60252905       0.63074411       1.69958196        6 
C       0.40343788       1.09621040       2.05671676        6 
C      -0.14286644       1.88429044       0.88142613        6 
C       1.17519240       2.46933496       0.32712354        6 
C       1.30989033       0.70516810      -2.19358879        6 
C      -1.21972464       1.70691909      -1.42382383        6 
H      -3.52893799      -1.92017413      -0.09068749        1 
H       2.27335409      -3.48249259       0.09096578        1 
H      -0.14565279       0.86654464       2.95890017        1 
H      -4.70163986      -0.57587376      -0.24792492        1 
H      -3.84638862      -0.86133000       1.30136190        1 
H       1.53348445      -3.32182841       1.71868462        1 
H       0.50777329      -3.60946651       0.28293674        1 
H      -0.95043074       2.58428538       1.09701044        1 
H       2.90980242       1.06474781      -0.04986953        1 
H      -0.57352903       2.50104030      -1.78971327        1 
H      -1.50062492       1.07948590      -2.27045131        1 
H      -2.13126635       2.16659418      -1.04360706        1 
H       2.30581002       0.31435817      -2.40710823        1 
H       0.63285844       0.27131924      -2.92832944        1 
H       1.33575607       1.78372969      -2.33283068        1 
H       1.65262535       3.14008819       1.04163526        1 
H       1.08413342       2.97608780      -0.63291049        1 
H       2.23402581      -0.04365662       2.25732981        1 
