35
Lattice="0.0 0.0 0.0 0.0 0.0 0.0 0.0 0.0 0.0" Properties=species:S:1:pos:R:3:Z:I:1 pbc="F F F"
C       0.57085087      -0.73651932      -0.70643212        6 
C       0.79465091       0.84228170      -0.44161908        6 
C      -0.87825618      -1.23293220      -0.58781534        6 
C      -0.34502463       1.65003835       0.18662798        6 
O      -1.20574284      -1.66332120       0.64724177        8 
O      -1.64807535      -1.29252763      -1.51603117        8 
O      -1.56895854       1.18166584      -0.09989233        8 
O      -0.16204898       2.67005289       0.80945729        8 
C      -2.68881450       1.93880630       0.39072370        6 
C      -2.55902769      -2.11708340       0.80864288        6 
C       1.57157475      -1.36175847       0.34999462        6 
C       1.15758970      -0.96750394       1.76322844        6 
C       1.41890196       0.33334735       1.91729010        6 
C       1.99318831       0.83263469       0.59896546        6 
C       2.78365966      -0.41559005       0.16881179        6 
C       0.99067574      -1.17954036      -2.12911754        6 
C       1.16912133       1.63647917      -1.71274528        6 
H      -2.69297798       1.94508001       1.48176520        1 
H      -2.75842173      -2.97252460       0.16107767        1 
H       1.17098986       0.96440836       2.75911058        1 
H      -3.56886115       1.43003313       0.00309712        1 
H      -2.64501565       2.96495794       0.02391101        1 
H      -2.64893307      -2.39942571       1.85565978        1 
H      -3.25864433      -1.31621959       0.56439267        1 
H       2.51792243       1.78502390       0.63032253        1 
H       1.73546764      -2.42644263       0.18148119        1 
H       2.09433192       1.26589296      -2.15373638        1 
H       0.38271665       1.58141200      -2.46882168        1 
H       1.31924931       2.68501601      -1.44886618        1 
H       0.89023788      -2.26503931      -2.20755464        1 
H       0.34147516      -0.74140682      -2.88440868        1 
H       2.02239295      -0.92709868      -2.36121231        1 
H       3.59263707      -0.64717826       0.86275852        1 
H       3.18489490      -0.37205145      -0.84330453        1 
H       0.66137266      -1.62622710       2.46002196        1 
