35
Lattice="0.0 0.0 0.0 0.0 0.0 0.0 0.0 0.0 0.0" Properties=species:S:1:pos:R:3:Z:I:1 pbc="F F F"
C      -0.31128723      -1.04237880       0.30868812        6 
C      -0.85373302       0.42644233       0.72844917        6 
C       1.08689435      -1.11951438      -0.32736295        6 
C       0.01386934       1.66284048       0.45885572        6 
O       2.04107107      -1.27642851       0.62092768        8 
O       1.35500668      -1.02448637      -1.49787376        8 
O       1.07166405       1.44584751      -0.32975074        8 
O      -0.25183713       2.75536802       0.90730808        8 
C       1.86354316       2.59004933      -0.68976225        6 
C       3.39601383      -1.28190549       0.14577904        6 
C      -1.39100397      -1.44638890      -0.79556746        6 
C      -1.26493840      -0.50818716      -1.98727821        6 
C      -1.73228492       0.68564062      -1.61189938        6 
C      -2.16746892       0.56149785      -0.16354052        6 
C      -2.68409502      -0.88905788      -0.16125522        6 
C      -0.35453152      -2.07467124       1.45695626        6 
C      -1.23378954       0.51390156       2.22274442        6 
H       1.24652807       3.33267045      -1.19711159        1 
H       3.62667858      -0.33531528      -0.34610449        1 
H      -1.70673515       1.60980227      -2.17395975        1 
H       2.62897411       2.20578209      -1.36059742        1 
H       2.31129470       3.03929657       0.19786105        1 
H       4.01524968      -1.41587850       1.03033806        1 
H       3.55315189      -2.09848640      -0.56068315        1 
H      -2.82799550       1.34031641       0.21487294        1 
H      -1.36329446      -2.51205070      -1.02419257        1 
H      -1.98415397      -0.22675494       2.49418193        1 
H      -0.36322456       0.36988781       2.86648842        1 
H      -1.63664996       1.50463461       2.42871015        1 
H       0.00715422      -3.03793522       1.08836205        1 
H       0.28083396      -1.78572286       2.29212217        1 
H      -1.36686950      -2.22587231       1.82604106        1 
H      -3.54969053      -1.01405504      -0.81328984        1 
H      -2.91876143      -1.28651695       0.82596318        1 
H      -0.78652919      -0.76450240      -2.91951897        1 
