35
Lattice="0.0 0.0 0.0 0.0 0.0 0.0 0.0 0.0 0.0" Properties=species:S:1:pos:R:3:Z:I:1 pbc="F F F"
C       0.81634893      -0.44314583      -0.71846666        6 
C       0.32385189       1.04236555      -0.33021419        6 
C       0.00448027      -1.65877301      -0.25453307        6 
C      -1.06567291       1.15844508       0.30003379        6 
O      -1.21526165      -1.39803493       0.23726357        8 
O       0.44110589      -2.78394146      -0.34338263        8 
O      -2.03505067       1.09709578      -0.64067640        8 
O      -1.29922043       1.36861044       1.46470618        8 
C      -3.38408342       1.16933442      -0.15941583        6 
C      -1.97594019      -2.53281826       0.69158262        6 
C       2.19737087      -0.53435863       0.07127120        6 
C       1.84030866      -0.62358246       1.54857901        6 
C       1.37855951       0.57484882       1.91858537        6 
C       1.43931313       1.48367168       0.69858264        6 
C       2.70053211       0.91574160       0.00556474        6 
C       1.02529529      -0.64921451      -2.23222531        6 
C       0.32024342       2.02712593      -1.52840542        6 
H      -3.58050686       0.35911907       0.54473273        1 
H      -1.42669183      -3.07570585       1.46119760        1 
H       0.93776057       0.85161641       2.86427840        1 
H      -4.01456137       1.07078047      -1.04090984        1 
H      -3.56752533       2.12373531       0.33734997        1 
H      -2.89644919      -2.11960395       1.09728765        1 
H      -2.18742776      -3.20416429      -0.14193887        1 
H       1.41221539       2.55363062       0.90180798        1 
H       2.83770675      -1.32111880      -0.32210576        1 
H       1.31472719       2.15942447      -1.94959422        1 
H      -0.35445440       1.70390896      -2.31886286        1 
H      -0.02254197       3.00658485      -1.18354973        1 
H       1.40900322      -1.65462253      -2.40844707        1 
H       0.08755165      -0.54134570      -2.78279746        1 
H       1.74081444       0.06540499      -2.63771598        1 
H       3.60186446       1.06326231       0.60222203        1 
H       2.87865536       1.28600909      -1.00439860        1 
H       1.85197855      -1.53654069       2.12886305        1 
