35
Lattice="0.0 0.0 0.0 0.0 0.0 0.0 0.0 0.0 0.0" Properties=species:S:1:pos:R:3:Z:I:1 pbc="F F F"
C       0.83621484       0.63958539      -0.55887897        6 
C      -0.76053771       0.55985786      -0.56844253        6 
C       1.51766996      -0.72620007      -0.51145762        6 
C      -1.32545658      -0.74849363      -0.00671778        6 
O       2.39828321      -0.83659197       0.50196348        8 
O       1.32583395      -1.59577653      -1.32568738        8 
O      -2.67823405      -0.75323164      -0.10584163        8 
O      -0.71721663      -1.65346155       0.50459374        8 
C      -3.34554999      -1.91068146       0.42532786        6 
C       3.01872434      -2.12888485       0.64078064        6 
C       1.12737621       1.63385016       0.62567001        6 
C       0.62284596       1.02848847       1.92558601        6 
C      -0.71231874       1.06548829       1.89769513        6 
C      -1.11971453       1.65861193       0.55481583        6 
C       0.01431756       2.68025672       0.37175336        6 
C       1.42603616       1.23622057      -1.87063857        6 
C      -1.41855879       0.89059353      -1.91437249        6 
H      -3.00324490      -2.81445175      -0.08084681        1 
H       3.60629771      -2.37119495      -0.24612059        1 
H      -1.39534247       0.62506982       2.61229872        1 
H      -4.40469524      -1.74490713       0.23865792        1 
H      -3.15518270      -2.00626313       1.49573443        1 
H       3.65928742      -2.05144723       1.51676968        1 
H       2.25205510      -2.89099174       0.78631427        1 
H      -2.14708493       2.00804395       0.46731365        1 
H       2.15761730       1.98638651       0.63262218        1 
H      -1.10661175       1.87013638      -2.27738858        1 
H      -1.15701483       0.14785436      -2.67158967        1 
H      -2.50262845       0.89808403      -1.80906340        1 
H       2.51493981       1.28004807      -1.77934469        1 
H       1.18941379       0.60555062      -2.72688903        1 
H       1.07193343       2.24560235      -2.06893452        1 
H      -0.00650726       3.45680903       1.13795188        1 
H       0.03939754       3.15124064      -0.61099420        1 
H       1.25196300       0.55853790       2.66732914        1 
