35
Lattice="0.0 0.0 0.0 0.0 0.0 0.0 0.0 0.0 0.0" Properties=species:S:1:pos:R:3:Z:I:1 pbc="F F F"
C       0.59007194      -0.47272412       0.68873920        6 
C      -0.98547842      -0.57375523       0.42346758        6 
C       1.26875548       0.68947017      -0.04116446        6 
C      -1.62724839       0.64215728      -0.24551647        6 
O       2.57760908       0.76784982       0.29582420        8 
O       0.77729784       1.41190816      -0.87212657        8 
O      -1.53139805       1.73877975       0.53699903        8 
O      -2.28160478       0.60565206      -1.25848396        8 
C      -2.05840492       2.95054346      -0.02712232        6 
C       3.35139106       1.74488240      -0.42306744        6 
C       1.11246196      -1.80435978      -0.04306154        6 
C       0.94368503      -1.58366868      -1.53823280        6 
C      -0.36742273      -1.59289593      -1.79423209        6 
C      -1.09101276      -1.85945835      -0.48494256        6 
C      -0.05624824      -2.77391961       0.21086684        6 
C       0.98701072      -0.46471245       2.17240780        6 
C      -1.82722578      -0.78438183       1.70923979        6 
H      -1.50469004       3.20533654      -0.93217807        1 
H       2.93616800       2.74352741      -0.28152034        1 
H      -0.86104404      -1.34780737      -2.72302788        1 
H      -1.91767165       3.71373845       0.73562173        1 
H      -3.11664704       2.83608400      -0.26654391        1 
H       4.35466651       1.68293167      -0.00713931        1 
H       3.36221275       1.51111542      -1.48923271        1 
H      -2.11294911      -2.22470462      -0.57450360        1 
H       2.10497117      -2.09541541       0.29744179        1 
H      -1.57105461      -1.71194856       2.21840225        1 
H      -1.70526493       0.04228117       2.40723134        1 
H      -2.88457845      -0.84009369       1.43674060        1 
H       2.07200150      -0.47674145       2.26856900        1 
H       0.61268616       0.42829811       2.67861006        1 
H       0.59101897      -1.33723201       2.69120240        1 
H       0.07795687      -3.72090636      -0.31396338        1 
H      -0.25514421      -2.97362295       1.26449270        1 
H       1.74181802      -1.32494600      -2.22156312        1 
