35
Lattice="0.0 0.0 0.0 0.0 0.0 0.0 0.0 0.0 0.0" Properties=species:S:1:pos:R:3:Z:I:1 pbc="F F F"
C       0.70239674      -0.66331658       0.48393239        6 
C      -0.90773935      -0.66229267       0.54652794        6 
C       1.34044003       0.71347547       0.29095013        6 
C      -1.59705939       0.71933365       0.47389634        6 
O       2.68321701       0.59355077       0.15728878        8 
O       0.78276770       1.77882573       0.20898781        8 
O      -1.68962146       1.22198419      -0.76850279        8 
O      -2.16058000       1.22440507       1.41688246        8 
C      -2.26735634       2.53100420      -0.87517836        6 
C       3.40317236       1.81688393      -0.07808293        6 
C       1.01077307      -1.61272053      -0.74796997        6 
C       0.57119310      -0.90068882      -2.01238697        6 
C      -0.76387831      -0.87300947      -2.00432627        6 
C      -1.23690686      -1.56599266      -0.73345421        6 
C      -0.13143768      -2.64055104      -0.61088265        6 
C       1.35174786      -1.25128849       1.76279686        6 
C      -1.48764252      -1.34034471       1.80286296        6 
H      -3.28756076       2.53807601      -0.48799941        1 
H       3.26632585       2.50643190       0.75618124        1 
H      -1.41274543      -0.37756998      -2.70998947        1 
H      -2.25842953       2.76535227      -1.93810548        1 
H      -1.66075361       3.24823346      -0.32051600        1 
H       4.44729657       1.52533867      -0.16831016        1 
H       3.05515040       2.29283999      -0.99621124        1 
H      -2.27155631      -1.90952101      -0.73538525        1 
H       2.03336219      -1.98566926      -0.73064458        1 
H      -1.12475172      -2.35862674       1.92428276        1 
H      -1.25957285      -0.77453915       2.70523146        1 
H      -2.57506634      -1.37952438       1.71729708        1 
H       2.43396051      -1.27950476       1.64106349        1 
H       1.12379574      -0.64555173       2.64273250        1 
H       1.00781409      -2.26601134       1.95442443        1 
H      -0.14789352      -3.34575200      -1.44357156        1 
H      -0.13420783      -3.19724810       0.32593059        1 
H       1.23549392      -0.42010439      -2.71813899        1 
