35
Lattice="0.0 0.0 0.0 0.0 0.0 0.0 0.0 0.0 0.0" Properties=species:S:1:pos:R:3:Z:I:1 pbc="F F F"
C       1.13361402       0.12281221      -0.56801048        6 
C      -0.21335016       0.97537105      -0.45533786        6 
C       1.09573192      -1.37644789      -0.23502473        6 
C      -1.50701589       0.17849390      -0.57413864        6 
O      -0.06924367      -1.83310599       0.24161579        8 
O       2.09317439      -2.06245060      -0.27698830        8 
O      -2.40322059       0.52264570       0.37633216        8 
O      -1.74583487      -0.61329185      -1.45206423        8 
C      -3.68267276      -0.13055182       0.29841016        6 
C      -0.10454981      -3.21339049       0.63967023        6 
C       1.97009411       0.73874821       0.66390644        6 
C       1.30927789       0.22863643       1.93787959        6 
C       0.12624514       0.84075962       2.04215660        6 
C      -0.00093924       1.79942847       0.86838364        6 
C       1.48603320       2.19722507       0.69102777        6 
C       1.89456235       0.28053180      -1.89000885        6 
C      -0.40028267       1.97559639      -1.63982633        6 
H      -4.17261619       0.09607116      -0.64994838        1 
H       0.57665250      -3.38820472       1.47421430        1 
H      -0.66074303       0.63831466       2.75494564        1 
H      -4.26078165       0.26275577       1.13202243        1 
H      -3.56315375      -1.21127658       0.38911724        1 
H      -1.13415177      -3.40067784       0.93710026        1 
H       0.17557133      -3.85744357      -0.19465432        1 
H      -0.72943695       2.59977944       0.98348096        1 
H       3.03605472       0.54602604       0.55880129        1 
H       0.41493099       2.69186382      -1.72446131        1 
H      -0.49565207       1.44503781      -2.58670996        1 
H      -1.32053619       2.54502248      -1.48012344        1 
H       2.80494843      -0.31691626      -1.85145816        1 
H       1.29568181      -0.06805153      -2.73432853        1 
H       2.17167588       1.31903980      -2.06979686        1 
H       1.87385947       2.73921298       1.55450383        1 
H       1.70536205       2.76326645      -0.21412520        1 
H       1.68746608      -0.58441503       2.54355440        1 
