35
Lattice="0.0 0.0 0.0 0.0 0.0 0.0 0.0 0.0 0.0" Properties=species:S:1:pos:R:3:Z:I:1 pbc="F F F"
C       0.62770484      -0.73338908       0.41483577        6 
C      -0.96119304      -0.52420340       0.57509807        6 
C       1.48355029       0.53733551       0.38244966        6 
C      -1.56686136       0.89141203       0.43180901        6 
O       2.77761878       0.21111234       0.12788943        8 
O       1.12590062       1.68177240       0.48736009        8 
O      -1.19486224       1.55233250      -0.67238608        8 
O      -2.45520617       1.29556791       1.14930523        8 
C      -1.77168963       2.85240895      -0.85649720        6 
C       3.69474747       1.31265070       0.02046522        6 
C       0.75402404      -1.64144976      -0.87243767        6 
C       0.29495057      -0.85460468      -2.08279603        6 
C      -1.02869458      -0.70829445      -1.98224625        6 
C      -1.47338558      -1.38320169      -0.69238553        6 
C      -0.47474261      -2.56164964      -0.67564707        6 
C       1.22757328      -1.51901635       1.62376172        6 
C      -1.55411364      -1.11718858       1.86333357        6 
H      -2.85679860       2.78352805      -0.95337866        1 
H       3.72466581       1.87965403       0.95218209        1 
H      -1.67290045      -0.13121792      -2.62935857        1 
H      -1.32701590       3.23705083      -1.77225187        1 
H      -1.52464849       3.49783617      -0.01265573        1 
H       4.66414697       0.86334297      -0.18508960        1 
H       3.40030475       1.97816205      -0.79292783        1 
H      -2.53436683      -1.62033376      -0.61573432        1 
H       1.73127188      -2.11491436      -0.94411852        1 
H      -1.31487807      -2.17255532       1.97582758        1 
H      -1.20120104      -0.58544959       2.74843221        1 
H      -2.63819869      -1.01562054       1.84270974        1 
H       2.28982593      -1.68752267       1.45132417        1 
H       1.12136078      -0.95808183       2.55488441        1 
H       0.75262779      -2.48726415       1.76223939        1 
H      -0.62036297      -3.23344329      -1.52263477        1 
H      -0.47386793      -3.14333049       0.24533909        1 
H       0.95024675      -0.41551492      -2.82304086        1 
