35
Lattice="0.0 0.0 0.0 0.0 0.0 0.0 0.0 0.0 0.0" Properties=species:S:1:pos:R:3:Z:I:1 pbc="F F F"
C       0.68747232      -0.77544071       0.35347384        6 
C      -0.86514812      -0.48056947       0.72747210        6 
C       1.46544488       0.45899562      -0.12270597        6 
C      -1.30390445       0.99817295       0.64694868        6 
O       2.76023769       0.43234480       0.27281175        8 
O       1.04017410       1.34007242      -0.82875387        8 
O      -1.67480107       1.39911722      -0.57502861        8 
O      -1.47930312       1.68531226       1.62915364        8 
C      -2.04682293       2.77742921      -0.71370221        6 
C       3.57695382       1.51998350      -0.19522168        6 
C       0.54759963      -1.81983526      -0.84485388        6 
C      -0.05591440      -1.12762627      -2.05010257        6 
C      -1.33592769      -0.88100631      -1.76486151        6 
C      -1.60475549      -1.39506200      -0.35908749        6 
C      -0.67688736      -2.63145950      -0.36954662        6 
C       1.45527144      -1.44608097       1.51306778        6 
C      -1.26700264      -0.94795441       2.13944800        6 
H      -2.88090928       3.02358066      -0.05482476        1 
H       3.19209990       2.47182416       0.17379139        1 
H      -2.04443381      -0.33138261      -2.36458204        1 
H      -2.33156459       2.89438582      -1.75757247        1 
H      -1.19385886       3.41654952      -0.48118778        1 
H       4.57035399       1.32704126       0.20412703        1 
H       3.59705680       1.54177705      -1.28592291        1 
H      -2.65227118      -1.55868919      -0.10476364        1 
H       1.47752037      -2.36321865      -1.01391225        1 
H      -1.09871242      -2.01338909       2.28039470        1 
H      -0.73319994      -0.39929437       2.91378191        1 
H      -2.33165423      -0.75680285       2.28718432        1 
H       2.46127603      -1.70921469       1.18947217        1 
H       1.54924038      -0.78217644       2.37369783        1 
H       0.96183521      -2.35790541       1.84115594        1 
H      -0.98658558      -3.36917533      -1.11080537        1 
H      -0.55536819      -3.12432191       0.59455058        1 
H       0.49554155      -0.80273028      -2.92132210        1 
