35
Lattice="0.0 0.0 0.0 0.0 0.0 0.0 0.0 0.0 0.0" Properties=species:S:1:pos:R:3:Z:I:1 pbc="F F F"
C       0.79603734       0.34498125      -0.57266064        6 
C      -0.78729992       0.62216898      -0.46320870        6 
C       1.26847542      -1.06234601      -0.20036834        6 
C      -1.62429544      -0.40478777       0.32978454        6 
O       2.62696023      -1.11444159      -0.23635402        8 
O       0.60553712      -2.00539467       0.14196757        8 
O      -2.71238219      -0.81034540      -0.37264752        8 
O      -1.39272222      -0.82164303       1.43396160        8 
C      -3.54028723      -1.78707307       0.28036078        6 
C       3.21236160      -2.37583676       0.12957178        6 
C       1.43682045       1.49665017       0.30011588        6 
C       1.04589799       1.29051764       1.75011394        6 
C      -0.25811918       1.56012121       1.85218005        6 
C      -0.75955616       1.94336136       0.46503111        6 
C       0.49456818       2.66593135      -0.06606019        6 
C       1.30054356       0.49903641      -2.04356192        6 
C      -1.46956240       0.95586477      -1.79953055        6 
H      -2.95817612      -2.67913955       0.51551247        1 
H       2.88914474      -3.16193837      -0.55525061        1 
H      -0.88718780       1.42102241       2.71864491        1 
H      -4.33173896      -2.01758233      -0.43028202        1 
H      -3.96009219      -1.38086263       1.20242851        1 
H       4.28801532      -2.22780418       0.05981624        1 
H       2.92609236      -2.65043688       1.14614083        1 
H      -1.70591361       2.48387510       0.42743095        1 
H       2.49856626       1.61877867       0.09498226        1 
H      -0.99600921       1.80435927      -2.29114552        1 
H      -1.45732565       0.10885619      -2.48638634        1 
H      -2.51288371       1.21615092      -1.62393591        1 
H       2.38202943       0.37137150      -2.06747459        1 
H       0.85846933      -0.25633750      -2.69746622        1 
H       1.06809837       1.47699294      -2.45726331        1 
H       0.72232648       3.56681329       0.50486548        1 
H       0.46103410       2.91550594      -1.12639839        1 
H       1.69297197       0.88103464       2.51396059        1 
