35
Lattice="0.0 0.0 0.0 0.0 0.0 0.0 0.0 0.0 0.0" Properties=species:S:1:pos:R:3:Z:I:1 pbc="F F F"
C       0.61298081      -0.63837321      -0.75937598        6 
C       0.68533584       0.92743627      -0.35163045        6 
C      -0.77497731      -1.27824530      -0.60821340        6 
C      -0.51594855       1.52125897       0.39192671        6 
O      -0.96716070      -1.87659458       0.58580181        8 
O      -1.62919680      -1.25444979      -1.45998330        8 
O      -1.67971890       1.25446503      -0.22312887        8 
O      -0.43460991       2.24110382       1.35914624        8 
C      -2.86367172       1.84410284       0.34025445        6 
C      -2.26775692      -2.45500950       0.79202747        6 
C       1.74885093      -1.24448352       0.15708649        6 
C       1.40385409      -1.05354377       1.62796692        6 
C       1.52540423       0.24595606       1.90894680        6 
C       1.93481332       0.94692192       0.62103710        6 
C       2.83122848      -0.14697433       0.00711381        6 
C       0.96870137      -0.89419864      -2.24598125        6 
C       0.89237605       1.87532877      -1.55218742        6 
H      -2.99805276       1.51910296       1.37320337        1 
H      -2.46413518      -3.23083500       0.05044204        1 
H       1.27475479       0.75187109       2.82942177        1 
H      -3.68222235       1.49353593      -0.28459078        1 
H      -2.79621994       2.93286660       0.31390305        1 
H      -2.24194906      -2.87814569       1.79402138        1 
H      -3.03955287      -1.68735218       0.71706160        1 
H       2.35580589       1.94472841       0.73167538        1 
H       2.01782873      -2.25840411      -0.14064614        1 
H       1.83072563       1.67069991      -2.06766919        1 
H       0.07496511       1.79032240      -2.26928885        1 
H       0.93007849       2.90786724      -1.19540096        1 
H       1.00010165      -1.97228510      -2.42483834        1 
H       0.21245367      -0.47679599      -2.90860246        1 
H       1.93916119      -0.48542538      -2.51603090        1 
H       3.70918388      -0.35034230       0.62141059        1 
H       3.15205109       0.04736604      -1.01646347        1 
H       1.03987076      -1.83647477       2.27635986        1 
