35
Lattice="0.0 0.0 0.0 0.0 0.0 0.0 0.0 0.0 0.0" Properties=species:S:1:pos:R:3:Z:I:1 pbc="F F F"
C      -0.03471149      -0.85339439       0.57428005        6 
C      -1.02378683       0.40493893       0.49370271        6 
C       1.26850453      -0.66837199      -0.21373502        6 
C      -0.44740394       1.69301571      -0.08376091        6 
O       2.31915939      -1.27281262       0.38639495        8 
O       1.37258965      -0.12302270      -1.28570005        8 
O       0.79710105       1.93614611       0.37971274        8 
O      -1.09803944       2.51839263      -0.67861565        8 
C       1.42186536       3.14134160      -0.09167533        6 
C       3.56456137      -1.21219522      -0.32964625        6 
C      -0.90351311      -1.94610161      -0.23344514        6 
C      -0.99876312      -1.51584735      -1.68835888        6 
C      -1.79327304      -0.44328923      -1.74130859        6 
C      -2.25085990      -0.14766983      -0.32599146        6 
C      -2.33024671      -1.58623078       0.23327876        6 
C       0.24490007      -1.35263005       1.99818346        6 
C      -1.52850049       0.88391152       1.88658167        6 
H       1.55448320       3.08982769      -1.17353669        1 
H       3.86859836      -0.17511056      -0.47901739        1 
H      -1.98668776       0.19242446      -2.59374667        1 
H       2.38763746       3.18312045       0.40760788        1 
H       0.81787469       4.01393306       0.16066012        1 
H       4.28359522      -1.73726374       0.29560681        1 
H       3.47090404      -1.69892288      -1.30175943        1 
H      -3.13245182       0.48338754      -0.23017132        1 
H      -0.55095614      -2.96126845      -0.04924979        1 
H      -2.09800863       0.10982781       2.39819601        1 
H      -0.70444625       1.19104735       2.53138316        1 
H      -2.18832544       1.74223162       1.74366631        1 
H       0.82001767      -2.27716706       1.96565770        1 
H       0.82395510      -0.62495905       2.56903328        1 
H      -0.67923368      -1.55212700       2.53771933        1 
H      -3.08885218      -2.18333540      -0.27438549        1 
H      -2.48391235      -1.65382622       1.31065611        1 
H      -0.41384357      -1.93387102      -2.49559802        1 
