35
Lattice="0.0 0.0 0.0 0.0 0.0 0.0 0.0 0.0 0.0" Properties=species:S:1:pos:R:3:Z:I:1 pbc="F F F"
C       0.82165654       0.54471348      -0.55111935        6 
C      -0.80025672       0.51344041      -0.56851492        6 
C       1.56589638      -0.77541517      -0.31380253        6 
C      -1.50745855      -0.81912052      -0.27891627        6 
O       2.54933435      -0.63129451       0.61407683        8 
O       1.39418538      -1.80414577      -0.90983795        8 
O      -2.56856708      -0.63034004       0.55303002        8 
O      -1.28003215      -1.88368492      -0.78629323        8 
C      -3.39398250      -1.78600938       0.77636806        6 
C       3.35897683      -1.79820624       0.84042367        6 
C       1.10724067       1.62085133       0.56518817        6 
C       0.63885864       1.04829869       1.89599011        6 
C      -0.69692001       1.03776533       1.87725351        6 
C      -1.13814859       1.59958030       0.53157829        6 
C      -0.02311831       2.63484655       0.29726336        6 
C       1.43485700       1.00763420      -1.89925911        6 
C      -1.41540812       0.91459581      -1.93187169        6 
H      -3.81832991      -2.14131519      -0.16448796        1 
H       3.87216120      -2.09293450      -0.07649954        1 
H      -1.36652770       0.61577406       2.61275424        1 
H      -4.18100462      -1.45426225       1.45066193        1 
H      -2.81315640      -2.59131615       1.22863937        1 
H       4.07645949      -1.51006231       1.60604178        1 
H       2.74197996      -2.63013001       1.18366329        1 
H      -2.16817102       1.94479972       0.47341528        1 
H       2.13150347       1.98724859       0.53777506        1 
H      -1.11377535       1.91474899      -2.24257808        1 
H      -1.13741258       0.20544100      -2.71275805        1 
H      -2.50566935       0.91261718      -1.84951464        1 
H       2.52301467       1.05306342      -1.80115364        1 
H       1.20035844       0.30441157      -2.69896362        1 
H       1.09198195       1.99956634      -2.19077325        1 
H      -0.04261008       3.43724258       1.03611071        1 
H      -0.01436208       3.07214665      -0.70243783        1 
H       1.29349907       0.63594477       2.64997391        1 
