35
Lattice="0.0 0.0 0.0 0.0 0.0 0.0 0.0 0.0 0.0" Properties=species:S:1:pos:R:3:Z:I:1 pbc="F F F"
C       0.98105911      -0.47004315      -0.46826827        6 
C       0.10600640       0.87493352      -0.52742217        6 
C       0.31658903      -1.74818994       0.04180810        6 
C      -1.20009596       0.82842198       0.28220236        6 
O      -1.01521674      -1.75815390      -0.16550176        8 
O       0.93321962      -2.75195791       0.31467785        8 
O      -2.23814330       1.37046942      -0.39855382        8 
O      -1.32802263       0.40732362       1.40500939        8 
C      -3.49997245       1.37841728       0.28839995        6 
C      -1.69659554      -2.99574159       0.09894444        6 
C       2.26374069      -0.04331065       0.33814862        6 
C       1.85903497       0.28978934       1.76163533        6 
C       1.16922839       1.43297713       1.72382794        6 
C       1.09174639       1.87492391       0.26889813        6 
C       2.47025644       1.38344867      -0.21996739        6 
C       1.42523086      -0.94844215      -1.88881764        6 
C      -0.14488986       1.41241055      -1.94387933        6 
H      -3.80289442       0.36059112       0.53945914        1 
H      -1.61110591      -3.25686665       1.15441959        1 
H       0.64062908       1.90216121       2.54099347        1 
H      -4.20568731       1.82797520      -0.40740130        1 
H      -3.43652878       1.96697271       1.20503923        1 
H      -2.73667112      -2.81491695      -0.16457759        1 
H      -1.27824724      -3.80022527      -0.50814540        1 
H       0.83473873       2.91977481       0.09341351        1 
H       3.07692632      -0.75691592       0.22076850        1 
H       0.78904014       1.55477121      -2.48412975        1 
H      -0.77931614       0.73986546      -2.52294115        1 
H      -0.65164424       2.37545928      -1.89172558        1 
H       2.02894474      -1.84995558      -1.78115557        1 
H       0.56701807      -1.18874244      -2.51941749        1 
H       2.02554004      -0.20126129      -2.40294759        1 
H       3.29075332       1.90343786       0.27561213        1 
H       2.61289634       1.43990617      -1.29912006        1 
H       2.00435335      -0.36350044       2.61104736        1 
