35
Lattice="0.0 0.0 0.0 0.0 0.0 0.0 0.0 0.0 0.0" Properties=species:S:1:pos:R:3:Z:I:1 pbc="F F F"
C       0.58301795      -0.70253683      -0.71183587        6 
C       0.79540485       0.86481080      -0.38193278        6 
C      -0.83126422      -1.30064837      -0.56107824        6 
C      -0.40544635       1.71437321       0.05143035        6 
O      -1.24742166      -1.44936733       0.71051546        8 
O      -1.45976499      -1.75582165      -1.48903394        8 
O      -1.59460504       1.10063366      -0.05002318        8 
O      -0.30796242       2.89283019       0.30746043        8 
C      -2.76030988       1.90299841       0.21172598        6 
C      -2.53932960      -2.04906859       0.87871584        6 
C       1.57694483      -1.34546252       0.36914153        6 
C       1.09013121      -1.03661130       1.78100308        6 
C       1.28193670       0.26629773       2.00336587        6 
C       1.90354108       0.84589963       0.74646827        6 
C       2.76041714      -0.35357704       0.29517343        6 
C       1.04005211      -1.10830144      -2.12714023        6 
C       1.33164161       1.65672580      -1.60674193        6 
H      -2.74140167       2.27926567       1.23526505        1 
H      -2.55373365      -3.06064506       0.46899254        1 
H       0.96910826       0.84436237       2.86264812        1 
H      -3.60711729       1.23697445       0.06153934        1 
H      -2.80513239       2.74438163      -0.48097838        1 
H      -2.71314797      -2.06794182       1.95288578        1 
H      -3.30544371      -1.45488319       0.37720488        1 
H       2.39280688       1.81263854       0.84903274        1 
H       1.78624147      -2.39404061       0.15541879        1 
H       2.26746095       1.24530626      -1.98065317        1 
H       0.61172112       1.66226489      -2.42877552        1 
H       1.50679914       2.68961291      -1.30795757        1 
H       0.93967077      -2.18845009      -2.24110259        1 
H       0.41989585      -0.64854372      -2.89561859        1 
H       2.07896000      -0.84733679      -2.31224229        1 
H       3.54107688      -0.59326247       1.01795381        1 
H       3.20733436      -0.24968476      -0.69290757        1 
H       0.59904843      -1.74620579       2.42914519        1 
