35
Lattice="0.0 0.0 0.0 0.0 0.0 0.0 0.0 0.0 0.0" Properties=species:S:1:pos:R:3:Z:I:1 pbc="F F F"
C      -0.40439615       1.08699352       0.25374372        6 
C       0.78099770       0.13489162       0.81302031        6 
C      -1.46611783       0.26436941      -0.48785878        6 
C       0.49925323      -1.33992617       0.52349128        6 
O      -2.59793892       0.12753532       0.22697386        8 
O      -1.33040059      -0.22981906      -1.58301015        8 
O       1.43437907      -1.93605931      -0.23247935        8 
O      -0.43191661      -1.94233975       1.00867219        8 
C       1.20308540      -3.32214081      -0.54857658        6 
C      -3.58716824      -0.75832301      -0.32465859        6 
C       0.40073503       2.03383291      -0.72853569        6 
C       0.95732560       1.23049374      -1.89336418        6 
C       1.94441133       0.46744823      -1.41959498        6 
C       2.04907409       0.73194961       0.07332971        6 
C       1.70238744       2.23762294       0.08346878        6 
C      -1.08171429       1.93905099       1.34418578        6 
C       0.96790942       0.19567520       2.34301075        6 
H       1.19829611      -3.92648439       0.35968478        1 
H      -3.17102000      -1.76184579      -0.42145886        1 
H       2.50154814      -0.28953652      -1.95050096        1 
H       2.02693538      -3.61079593      -1.19781127        1 
H       0.24930877      -3.43401361      -1.06531204        1 
H      -4.40927841      -0.75191255       0.38796070        1 
H      -3.92106016      -0.40409937      -1.30113474        1 
H       2.98223381       0.43025035       0.54840306        1 
H      -0.17115158       2.92392759      -0.99375055        1 
H       1.21022293       1.20217744       2.68210909        1 
H       0.07411091      -0.14765733       2.86302618        1 
H       1.79476823      -0.46008169       2.63087273        1 
H      -1.86444475       2.55188426       0.89222218        1 
H      -1.54950485       1.32330163       2.11012821        1 
H      -0.37063655       2.60973541       1.82335171        1 
H       2.43591655       2.83165806      -0.46231478        1 
H       1.56119654       2.66659902       1.07604595        1 
H       0.54332067       1.22272794      -2.89066310        1 
