35
Lattice="0.0 0.0 0.0 0.0 0.0 0.0 0.0 0.0 0.0" Properties=species:S:1:pos:R:3:Z:I:1 pbc="F F F"
C       0.93214730       0.72101522      -0.48159250        6 
C      -0.67377119       0.63535105      -0.55814490        6 
C       1.63261564      -0.64760912      -0.44300746        6 
C      -1.25390225      -0.75036750      -0.27235984        6 
O       1.84241224      -1.11164299       0.80279473        8 
O       2.00844250      -1.23100646      -1.43035866        8 
O      -2.55846526      -0.64801195       0.07921875        8 
O      -0.70643124      -1.81583082      -0.40535659        8 
C      -3.25848164      -1.88928237       0.27475882        6 
C       2.34115168      -2.45825742       0.88556221        6 
C       1.12827404       1.61949211       0.80654158        6 
C       0.55111838       0.91782648       2.02945333        6 
C      -0.77964251       0.93638728       1.91812573        6 
C      -1.11069246       1.63001311       0.60448709        6 
C       0.01938938       2.67419743       0.57043565        6 
C       1.56349289       1.43428460      -1.70019919        6 
C      -1.26347404       1.05717978      -1.91952605        6 
H      -3.22143157      -2.49510675      -0.63190146        1 
H       3.31723370      -2.53995798       0.40509729        1 
H      -1.50376157       0.45350894       2.56003529        1 
H      -4.28380655      -1.60979232       0.50787401        1 
H      -2.81684120      -2.45154428       1.09900857        1 
H       2.41786235      -2.67454385       1.94945666        1 
H       1.63778846      -3.13751236       0.40232582        1 
H      -2.13320764       1.98329221       0.48767721        1 
H       2.15205222       1.97953467       0.90518239        1 
H      -0.99925614       2.08589143      -2.16554618        1 
H      -0.90679786       0.41079223      -2.72455590        1 
H      -2.35220617       0.99077148      -1.88383595        1 
H       2.64210206       1.51673395      -1.54509262        1 
H       1.41337508       0.85950656      -2.61206143        1 
H       1.17079042       2.43764231      -1.84714998        1 
H      -0.05898119       3.38515253       1.39421622        1 
H       0.09847926       3.22433168      -0.36709139        1 
H       1.13974732       0.42242376       2.78653441        1 
