35
Lattice="0.0 0.0 0.0 0.0 0.0 0.0 0.0 0.0 0.0" Properties=species:S:1:pos:R:3:Z:I:1 pbc="F F F"
C       1.03321779      -0.60897752      -0.39312914        6 
C       0.51843269       0.92193597      -0.57110022        6 
C      -0.04663590      -1.69868304      -0.32462307        6 
C      -1.00864823       1.09928066      -0.66611561        6 
O      -1.08967756      -1.38947181       0.46587943        8 
O       0.02393319      -2.75608224      -0.90728252        8 
O      -1.63356657       1.27346861       0.51023374        8 
O      -1.58842212       1.24692434      -1.71904387        8 
C      -3.05664275       1.44921255       0.44588414        6 
C      -2.13431675      -2.37421660       0.55239335        6 
C       1.86052167      -0.52142679       0.96561233        6 
C       0.92904681      -0.23083483       2.12630256        6 
C       0.50977133       1.02898246       1.99403892        6 
C       1.14655821       1.59799588       0.73428092        6 
C       2.50905503       0.87195960       0.80256537        6 
C       1.98320741      -1.05687902      -1.52387304        6 
C       1.07630749       1.61991928      -1.82737967        6 
H      -3.31121365       2.36054873      -0.09776035        1 
H      -1.74697809      -3.31155621       0.95431217        1 
H      -0.22624315       1.53939983       2.59558385        1 
H      -3.38683940       1.51457890       1.48081298        1 
H      -3.52294363       0.59731882      -0.05221379        1 
H      -2.87655531      -1.94743572       1.22392972        1 
H      -2.56554073      -2.55866363      -0.43280783        1 
H       1.16083908       2.68525596       0.65819112        1 
H       2.52709828      -1.37587345       1.08187520        1 
H       2.16303421       1.66505737      -1.81513034        1 
H       0.75269631       1.12350847      -2.74070523        1 
H       0.69942397       2.64422949      -1.86640879        1 
H       2.35450086      -2.05814839      -1.30707029        1 
H       1.46708884      -1.10667610      -2.48318239        1 
H       2.83624278      -0.39099529      -1.62471818        1 
H       3.08194526       1.15813041       1.68504108        1 
H       3.13549009       0.98442591      -0.08151371        1 
H       0.59560990      -0.96047118       2.85142413        1 
