35
Lattice="0.0 0.0 0.0 0.0 0.0 0.0 0.0 0.0 0.0" Properties=species:S:1:pos:R:3:Z:I:1 pbc="F F F"
C       0.72586568      -0.66921556       0.38101074        6 
C      -0.87957517      -0.58721898       0.62275862        6 
C       1.48831570       0.65057711       0.15753837        6 
C      -1.63140905       0.76709868       0.55783699        6 
O       2.82218138       0.46051900       0.35381275        8 
O       1.06671028       1.70449342      -0.24039950        8 
O      -1.48442976       1.43724417      -0.58697173        8 
O      -2.45551314       1.09350320       1.38573141        8 
C      -2.22450189       2.65851360      -0.71865102        6 
C       3.66174167       1.58901354       0.05999746        6 
C       0.83478927      -1.57662852      -0.92115234        6 
C       0.25625526      -0.82316837      -2.10129915        6 
C      -1.06599846      -0.76933662      -1.92685967        6 
C      -1.39084044      -1.47671701      -0.61988036        6 
C      -0.31072053      -2.58063623      -0.66256583        6 
C       1.43689899      -1.40582887       1.54955242        6 
C      -1.33824630      -1.25046864       1.93510580        6 
H      -3.29877318       2.46601480      -0.68503627        1 
H       3.38982714       2.44292360       0.68227922        1 
H      -1.78364640      -0.23935839      -2.53485789        1 
H      -1.93408825       3.06449902      -1.68537623        1 
H      -1.95927155       3.35203028       0.08035212        1 
H       4.67508291       1.26046695       0.28170812        1 
H       3.57013205       1.87163936      -0.99032969        1 
H      -2.42599693      -1.79221085      -0.48919950        1 
H       1.83878823      -1.97943606      -1.04798899        1 
H      -1.02313609      -2.28903826       1.99986566        1 
H      -0.95809319      -0.71885790       2.80843238        1 
H      -2.42519429      -1.22182081       1.99247965        1 
H       2.48213045      -1.57040041       1.29834413        1 
H       1.40567976      -0.82003287       2.47079267        1 
H       0.98614525      -2.37258586       1.75363779        1 
H      -0.45451334      -3.25775609      -1.50560127        1 
H      -0.21390901      -3.16586838       0.25119116        1 
H       0.83621660      -0.33358494      -2.87180133        1 
