35
Lattice="0.0 0.0 0.0 0.0 0.0 0.0 0.0 0.0 0.0" Properties=species:S:1:pos:R:3:Z:I:1 pbc="F F F"
C       0.86525515      -0.70982036       0.55135699        6 
C      -0.73727566      -0.59492660       0.55351049        6 
C       1.58657765       0.64734958       0.52177233        6 
C      -1.26667425       0.78588433       0.15877578        6 
O       2.09358589       0.95394133      -0.68607212        8 
O       1.76986133       1.32232984       1.50610730        8 
O      -2.61779529       0.75224797       0.06260807        8 
O      -0.63177638       1.78473032      -0.06693955        8 
C      -3.25506800       1.97988033      -0.33048286        6 
C       2.68522233       2.25906916      -0.79928097        6 
C       1.10862736      -1.64149209      -0.70558406        6 
C       0.61024225      -0.95002590      -1.96600788        6 
C      -0.72475959      -0.94117273      -1.92464593        6 
C      -1.13720817      -1.60378497      -0.62004198        6 
C      -0.03298058      -2.66924608      -0.50750939        6 
C       1.43654843      -1.40402120       1.81112073        6 
C      -1.39743793      -0.99978853       1.88389115        6 
H      -3.02015145       2.77652310       0.37671640        1 
H       3.52572545       2.36216772      -0.11166889        1 
H      -1.40277246      -0.45359328      -2.61275644        1 
H      -4.32185603       1.76608174      -0.32715571        1 
H      -2.92686414       2.27789326      -1.32786925        1 
H       3.02100725       2.33724447      -1.83162010        1 
H       1.93586927       3.02008664      -0.57790444        1 
H      -2.17293052      -1.93040650      -0.54671165        1 
H       2.12732700      -2.02596232      -0.74692403        1 
H      -1.12793977      -2.01757011       2.16613760        1 
H      -1.09741340      -0.33240612       2.69517996        1 
H      -2.48201474      -0.95212506       1.78720661        1 
H       2.52073178      -1.49475775       1.70404549        1 
H       1.24566462      -0.81360130       2.70556870        1 
H       1.03385645      -2.40409889       1.95518983        1 
H      -0.08360464      -3.39506879      -1.32111877        1 
H      -0.01440162      -3.20284556       0.44281615        1 
H       1.24738592      -0.47880240      -2.69871876        1 
