35
Lattice="0.0 0.0 0.0 0.0 0.0 0.0 0.0 0.0 0.0" Properties=species:S:1:pos:R:3:Z:I:1 pbc="F F F"
C       0.68457033      -0.55665485      -0.74689390        6 
C       0.59279994       0.96243153      -0.24349214        6 
C      -0.50437600      -1.48656430      -0.46143354        6 
C      -0.76304769       1.49441701       0.21159377        6 
O      -1.05994355      -1.32878211       0.75447526        8 
O      -0.84502957      -2.37552619      -1.20840798        8 
O      -1.79015501       0.90266575      -0.43612103        8 
O      -0.90353590       2.51636008       0.84182765        8 
C      -3.09242024       1.47300240      -0.22731807        6 
C      -2.17328923      -2.18441391       1.05112286        6 
C       1.91338627      -1.07336418       0.16420753        6 
C       1.48147343      -1.08226771       1.62444333        6 
C       1.36175041       0.18821276       2.01958555        6 
C       1.73021567       1.06578588       0.83793821        6 
C       2.81141255       0.17992359       0.17736958        6 
C       1.03168598      -0.72429214      -2.23346880        6 
C       0.90574452       1.98297670      -1.38537516        6 
H      -3.38575322       1.37591515       0.81950515        1 
H      -1.88589762      -3.23473698       0.98501492        1 
H       0.96638935       0.55196240       2.95809748        1 
H      -3.76371286       0.90214102      -0.86560667        1 
H      -3.09908940       2.52815923      -0.50466569        1 
H      -2.47152740      -1.92975773       2.06608595        1 
H      -2.99069841      -1.99583859       0.35220448        1 
H       1.98830266       2.09762783       1.06753107        1 
H       2.33764265      -2.00052951      -0.22091620        1 
H       1.89152254       1.82268645      -1.81629886        1 
H       0.16892606       1.92310326      -2.18820892        1 
H       0.87750857       2.99148581      -0.97102147        1 
H       1.13918547      -1.78313173      -2.46459736        1 
H       0.23902846      -0.33304315      -2.87409823        1 
H       1.96207913      -0.22117946      -2.48941719        1 
H       3.68464566       0.05191962       0.81811573        1 
H       3.13967080       0.51124763      -0.80766436        1 
H       1.20470803      -1.96873439       2.17806095        1 
