35
Lattice="0.0 0.0 0.0 0.0 0.0 0.0 0.0 0.0 0.0" Properties=species:S:1:pos:R:3:Z:I:1 pbc="F F F"
C      -0.80467867      -0.75524399      -0.41003137        6 
C       0.72903205      -0.32338578      -0.64296476        6 
C      -1.66588494       0.24787443       0.38163874        6 
C       1.09804477       1.06934610      -0.13009507        6 
O      -2.43819781       0.98772065      -0.44487501        8 
O      -1.66666168       0.40035419       1.57631892        8 
O       2.43436053       1.26743197      -0.24233626        8 
O       0.36481644       1.89677463       0.34807902        8 
C       2.92496656       2.52869089       0.24448637        6 
C      -3.18360656       2.04482924       0.18084371        6 
C      -0.59129221      -2.05565225       0.49414718        6 
C       0.02483309      -1.64888762       1.82942641        6 
C       1.29345914      -1.29806600       1.59869398        6 
C       1.53888149      -1.45710798       0.10954764        6 
C       0.64856483      -2.68308493      -0.18002364        6 
C      -1.55972468      -1.15577835      -1.69362599        6 
C       1.11811368      -0.31556418      -2.14480775        6 
H       2.46870740       3.35426208      -0.30398061        1 
H      -2.50190243       2.73123528       0.68453597        1 
H       1.99465454      -0.86695945       2.30053513        1 
H       3.99973474       2.50591866       0.07696018        1 
H       2.70342286       2.63869380       1.30719133        1 
H      -3.71040008       2.54602947      -0.62905989        1 
H      -3.89218966       1.63977079       0.90525232        1 
H       2.57760910      -1.49697337      -0.21371546        1 
H      -1.49445717      -2.66362839       0.55131477        1 
H       0.92852754      -1.27969468      -2.61290782        1 
H       0.56129501       0.44338698      -2.69916983        1 
H       2.18048744      -0.09308621      -2.24173240        1 
H      -2.58173060      -1.44321985      -1.43732310        1 
H      -1.62653279      -0.33672904      -2.40833440        1 
H      -1.09536162      -2.00903530      -2.18726197        1 
H       0.99636912      -3.57411888       0.34390745        1 
H       0.52562059      -2.91622855      -1.23818681        1 
H      -0.51877324      -1.57224789       2.75787225        1 
