35
Lattice="0.0 0.0 0.0 0.0 0.0 0.0 0.0 0.0 0.0" Properties=species:S:1:pos:R:3:Z:I:1 pbc="F F F"
C      -0.30727699      -1.05459638       0.26807648        6 
C      -0.74462718       0.38232397       0.81810585        6 
C       1.13013498      -1.21122417      -0.21778280        6 
C       0.02142052       1.62998013       0.33117502        6 
O       2.01192848      -0.83033524       0.73246456        8 
O       1.45747333      -1.81818392      -1.20940513        8 
O       1.15177416       1.39417741      -0.35318131        8 
O      -0.45647092       2.73903808       0.41520283        8 
C       1.72388187       2.51824449      -1.04411942        6 
C       3.39820209      -0.99619863       0.40632053        6 
C      -1.38337144      -1.36549848      -0.82818420        6 
C      -1.29767418      -0.30862165      -1.91681040        6 
C      -1.79056531       0.82901663      -1.41699123        6 
C      -2.15605044       0.55882917       0.03879885        6 
C      -2.65842925      -0.88655486      -0.09130839        6 
C      -0.37920463      -2.16467738       1.36371372        6 
C      -0.92031164       0.49416330       2.33613689        6 
H       1.01237701       2.91043343      -1.77276706        1 
H       3.64446009      -0.43862539      -0.49932272        1 
H      -1.81423931       1.80262965      -1.88680254        1 
H       2.60716360       2.12825870      -1.54523587        1 
H       1.99262466       3.30694937      -0.34090538        1 
H       3.94836567      -0.60008436       1.25740705        1 
H       3.63632493      -2.05008912       0.25179875        1 
H      -2.79984046       1.29050854       0.52116829        1 
H      -1.34926572      -2.39934210      -1.16733098        1 
H      -1.65777441      -0.21916079       2.70545680        1 
H       0.02164985       0.31575442       2.86049709        1 
H      -1.26733412       1.49878051       2.58316172        1 
H      -0.08673174      -3.11897967       0.91795365        1 
H       0.30108018      -1.95420514       2.18692445        1 
H      -1.38232999      -2.28440284       1.76633824        1 
H      -3.54515401      -0.95157723      -0.72372050        1 
H      -2.86388712      -1.38253225       0.85693104        1 
H      -0.83618970      -0.46369101      -2.88215190        1 
