35
Lattice="0.0 0.0 0.0 0.0 0.0 0.0 0.0 0.0 0.0" Properties=species:S:1:pos:R:3:Z:I:1 pbc="F F F"
C       0.77264897       0.33581178      -0.59587331        6 
C      -0.80343201       0.66194617      -0.45199831        6 
C       1.22625465      -1.03827175      -0.09292967        6 
C      -1.66187038      -0.33874330       0.35300282        6 
O       2.54992543      -1.21201965      -0.35134740        8 
O       0.59105469      -1.85504887       0.52053842        8 
O      -2.54108373      -0.98839684      -0.45013128        8 
O      -1.57750969      -0.58292765       1.52744436        8 
C      -3.32829057      -2.00736175       0.18941026        6 
C       3.12544758      -2.43648997       0.13534497        6 
C       1.46232016       1.51114118       0.21049624        6 
C       1.12373632       1.35545619       1.67988696        6 
C      -0.17299226       1.64393273       1.81906186        6 
C      -0.71808755       1.99785176       0.43956513        6 
C       0.52836502       2.68412022      -0.15732783        6 
C       1.23250847       0.39905660      -2.08068491        6 
C      -1.50936143       0.99088761      -1.78026179        6 
H      -2.67810059      -2.77382682       0.61363381        1 
H       2.63946295      -3.29794799      -0.32602389        1 
H      -0.77230336       1.54797713       2.71101189        1 
H      -3.95659018      -2.42295987      -0.59606286        1 
H      -3.94115564      -1.57830235       0.98378383        1 
H       4.17566527      -2.39483677      -0.14582539        1 
H       3.01864073      -2.50633785       1.21910969        1 
H      -1.65475311       2.55604277       0.42270177        1 
H       2.51743823       1.60586221      -0.04035779        1 
H      -1.05756679       1.85007657      -2.27395517        1 
H      -1.49950819       0.14869828      -2.47140011        1 
H      -2.55402734       1.23736055      -1.58505454        1 
H       2.31367008       0.28260903      -2.13298468        1 
H       0.78169017      -0.40110242      -2.67275691        1 
H       0.97059712       1.34591242      -2.54598196        1 
H       0.79072255       3.59672244       0.37879339        1 
H       0.46487651       2.90126053      -1.22365095        1 
H       1.79382188       0.96265567       2.43276277        1 
