35
Lattice="0.0 0.0 0.0 0.0 0.0 0.0 0.0 0.0 0.0" Properties=species:S:1:pos:R:3:Z:I:1 pbc="F F F"
C       0.85082340       0.66591980      -0.49516310        6 
C      -0.74937812       0.51120398      -0.60116464        6 
C       1.64166493      -0.64247339      -0.42794059        6 
C      -1.33620508      -0.84896174      -0.18710049        6 
O       2.36522360      -0.75426034       0.70930672        8 
O       1.64857958      -1.47853069      -1.29348350        8 
O      -2.61545259      -0.67412383       0.24725558        8 
O      -0.86310438      -1.94480326      -0.32860748        8 
C      -3.35087468      -1.87589630       0.52824249        6 
C       3.10352181      -1.98201539       0.85418011        6 
C       1.01845243       1.64249465       0.72077539        6 
C       0.45460342       0.98181272       1.97030540        6 
C      -0.87591725       0.96178594       1.84882462        6 
C      -1.21697859       1.57776143       0.49581606        6 
C      -0.11762432       2.64932961       0.41772940        6 
C       1.46803596       1.32757822      -1.76399465        6 
C      -1.33365067       0.80670968      -1.99353024        6 
H      -3.41823936      -2.50213399      -0.36332182        1 
H       3.84848382      -2.07732398       0.06259299        1 
H      -1.59273980       0.49210527       2.50782757        1 
H      -4.33994498      -1.54458838       0.83840796        1 
H      -2.86896947      -2.44455524       1.32532251        1 
H       3.58440645      -1.91842572       1.82809974        1 
H       2.42468888      -2.83485312       0.81087338        1 
H      -2.24733262       1.89630011       0.35559330        1 
H       2.03088714       2.03415270       0.80529580        1 
H      -1.09326720       1.81956086      -2.31831708        1 
H      -0.94975626       0.10477972      -2.73674962        1 
H      -2.42100249       0.71421548      -1.96321268        1 
H       2.54550123       1.44293187      -1.61498609        1 
H       1.32129194       0.69575637      -2.63874782        1 
H       1.05731701       2.31356117      -1.96892570        1 
H      -0.22382154       3.40045534       1.20177413        1 
H      -0.04463314       3.15146674      -0.54702893        1 
H       1.05311917       0.53242748       2.74922437        1 
