35
Lattice="0.0 0.0 0.0 0.0 0.0 0.0 0.0 0.0 0.0" Properties=species:S:1:pos:R:3:Z:I:1 pbc="F F F"
C       0.95212195      -0.52268686      -0.53603062        6 
C       0.15030882       0.87559758      -0.55120539        6 
C       0.21739272      -1.65964163       0.17355964        6 
C      -1.17543427       0.81157510       0.20921678        6 
O      -0.88047606      -2.02261773      -0.53314424        8 
O       0.55101677      -2.20048911       1.19570252        8 
O      -2.14783426       1.53986561      -0.38602730        8 
O      -1.35786250       0.23831881       1.25611847        8 
C      -3.41653836       1.56249297       0.29076349        6 
C      -1.71429208      -3.02591570       0.07135005        6 
C       2.27068149      -0.13019927       0.24967333        6 
C       1.91097920       0.19804673       1.68993842        6 
C       1.25316621       1.35996182       1.68439976        6 
C       1.16216564       1.82477228       0.24173307        6 
C       2.51236197       1.29554647      -0.29109307        6 
C       1.31806874      -1.06354326      -1.93683101        6 
C      -0.07505124       1.42877430      -1.97038998        6 
H      -3.82553684       0.55344675       0.36479693        1 
H      -2.08672567      -2.67018676       1.03323018        1 
H       0.74938944       1.82911328       2.51795792        1 
H      -4.05893313       2.19271110      -0.32070833        1 
H      -3.30975895       1.97775513       1.29389200        1 
H      -2.53481334      -3.18185281      -0.62648948        1 
H      -1.15628137      -3.95205804       0.21772984        1 
H       0.93289905       2.87853849       0.08204366        1 
H       3.06533811      -0.86226286       0.10954904        1 
H       0.86152811       1.49360295      -2.52073841        1 
H      -0.76221357       0.80165174      -2.54046155        1 
H      -0.50759107       2.42746354      -1.91735829        1 
H       1.82126615      -2.02856493      -1.82862331        1 
H       0.43641380      -1.21884201      -2.55734945        1 
H       2.00191337      -0.39681481      -2.46084225        1 
H       3.36096156       1.78197923       0.19118235        1 
H       2.63099248       1.36166555      -1.37315248        1 
H       2.05699669      -0.47103842       2.52381925        1 
