35
Lattice="0.0 0.0 0.0 0.0 0.0 0.0 0.0 0.0 0.0" Properties=species:S:1:pos:R:3:Z:I:1 pbc="F F F"
C      -0.62640729      -0.94947110       0.28970171        6 
C      -0.69887254       0.59041947       0.79303087        6 
C       0.67646081      -1.33250720      -0.41614915        6 
C       0.63964214       1.32688549       0.63341254        6 
O       1.72866910      -1.24302309       0.42405834        8 
O       0.78224601      -1.71208437      -1.55632474        8 
O       0.94192862       1.60394013      -0.65098392        8 
O       1.38881086       1.58808299       1.54323107        8 
C       2.22636087       2.20364598      -0.88613409        6 
C       3.00877707      -1.60138096      -0.12369876        6 
C      -1.84108834      -1.01087364      -0.72622513        6 
C      -1.51041379      -0.16404972      -1.94472117        6 
C      -1.54291157       1.11417778      -1.56301847        6 
C      -1.89972057       1.14374946      -0.08576018        6 
C      -2.85441655      -0.07524665      -0.03564585        6 
C      -0.81797195      -1.98922567       1.41360314        6 
C      -1.06083289       0.72605829       2.28652974        6 
H       2.28472488       3.18569450      -0.41398178        1 
H       3.22470306      -1.00340052      -1.01042955        1 
H      -1.26888018       1.98093939      -2.14664130        1 
H       2.30974897       2.29134257      -1.96739158        1 
H       3.01946840       1.56970980      -0.48694066        1 
H       3.72874386      -1.39785132       0.66551086        1 
H       3.02275574      -2.65795374      -0.39678658        1 
H      -2.28036045       2.09155804       0.29609258        1 
H      -2.15686099      -2.03416348      -0.92747446        1 
H      -2.01001483       0.24936012       2.52069274        1 
H      -0.28824650       0.30425058       2.92709313        1 
H      -1.14581522       1.78493465       2.54096819        1 
H      -0.74418478      -2.99532230       0.99064622        1 
H      -0.05700472      -1.89261087       2.18715373        1 
H      -1.80068665      -1.90008544       1.87632069        1 
H      -3.74697104       0.07923112      -0.64310709        1 
H      -3.15527004      -0.38429637       0.96568059        1 
H      -1.20033031      -0.55927887      -2.90001652        1 
