35
Lattice="0.0 0.0 0.0 0.0 0.0 0.0 0.0 0.0 0.0" Properties=species:S:1:pos:R:3:Z:I:1 pbc="F F F"
C       0.34924972      -0.88627871       0.49540447        6 
C      -1.14093321      -0.28640239       0.49345771        6 
C       1.46047448       0.15925346       0.50561873        6 
C      -1.27329577       1.23976934       0.32914414        6 
O       2.57478586      -0.30944017      -0.09801174        8 
O       1.40244766       1.24704367       1.02368221        8 
O      -0.59829520       1.73356861      -0.72365135        8 
O      -2.00645892       1.92222610       1.00563928        8 
C      -0.65035063       3.15801755      -0.89537668        6 
C       3.71327072       0.57060824      -0.08891306        6 
C       0.34643277      -1.85862591      -0.74781541        6 
C       0.22670641      -1.03003079      -2.01324184        6 
C      -1.01385266      -0.53662816      -2.04917930        6 
C      -1.73961206      -1.02147694      -0.80304213        6 
C      -1.09193101      -2.41822491      -0.66479253        6 
C       0.67499437      -1.70505301       1.77826861        6 
C      -1.97598261      -0.66376855       1.72701727        6 
H      -1.68247325       3.49993974      -0.98232490        1 
H       4.01506453       0.79442213       0.93542557        1 
H      -1.41812695       0.16836757      -2.76138938        1 
H      -0.09943484       3.35812531      -1.81254064        1 
H      -0.17362950       3.65136012      -0.04689454        1 
H       4.50046542       0.03210545      -0.61219784        1 
H       3.47596453       1.50245902      -0.60444485        1 
H      -2.82801943      -0.96987804      -0.83070940        1 
H       1.16640368      -2.57389978      -0.71955065        1 
H      -2.01612670      -1.74064368       1.87991019        1 
H      -1.58276505      -0.19802348       2.63125908        1 
H      -2.99577858      -0.30080099       1.59892832        1 
H       1.68996861      -2.10148567       1.70134734        1 
H       0.61909816      -1.08363530       2.67348732        1 
H      -0.00219887      -2.54743894       1.90247535        1 
H      -1.32771796      -3.06611917      -1.51017702        1 
H      -1.33074815      -2.94037886       0.26179573        1 
H       1.04475409      -0.80670426      -2.68388543        1 
