35
Lattice="0.0 0.0 0.0 0.0 0.0 0.0 0.0 0.0 0.0" Properties=species:S:1:pos:R:3:Z:I:1 pbc="F F F"
C       0.94079164       0.72209259      -0.46152350        6 
C      -0.66425615       0.63046422      -0.57948144        6 
C       1.63749836      -0.64665995      -0.42871787        6 
C      -1.25247392      -0.75472977      -0.29591295        6 
O       1.86418945      -1.10378991       0.81807734        8 
O       1.96021758      -1.25674477      -1.41760169        8 
O      -2.51796442      -0.64415182       0.17701712        8 
O      -0.75925456      -1.82187714      -0.56111497        8 
C      -3.23696625      -1.87820429       0.34539460        6 
C       2.35839071      -2.45298800       0.90117528        6 
C       1.11078788       1.61963292       0.82486580        6 
C       0.50316777       0.92376356       2.03566150        6 
C      -0.82442762       0.94911110       1.89362270        6 
C      -1.12261815       1.63645444       0.56705241        6 
C       0.01095124       2.67743470       0.55929149        6 
C       1.59435708       1.43721272      -1.67038259        6 
C      -1.22517577       1.02873567      -1.95795844        6 
H      -3.30842055      -2.41071221      -0.60438658        1 
H       3.32982953      -2.53944609       0.41212399        1 
H      -1.56579821       0.47631483       2.52226450        1 
H      -4.22500830      -1.59154811       0.69963495        1 
H      -2.73730799      -2.51628686       1.07596044        1 
H       2.44448410      -2.66538955       1.96506944        1 
H       1.64989486      -3.13232218       0.42556462        1 
H      -2.14055046       1.99435406       0.42672095        1 
H       2.13319050       1.97642425       0.94644228        1 
H      -0.97614481       2.06118483      -2.20538392        1 
H      -0.83490109       0.38124636      -2.74577137        1 
H      -2.31384692       0.94149586      -1.95018061        1 
H       2.66943900       1.52527870      -1.49315190        1 
H       1.46478597       0.85853358      -2.58286694        1 
H       1.20124994       2.43847694      -1.82962443        1 
H      -0.08575544       3.38907840       1.38035577        1 
H       0.11477939       3.22690540      -0.37614678        1 
H       1.07236852       0.42949640       2.80845697        1 
