35
Lattice="0.0 0.0 0.0 0.0 0.0 0.0 0.0 0.0 0.0" Properties=species:S:1:pos:R:3:Z:I:1 pbc="F F F"
C       0.33344359      -0.91651868       0.44026546        6 
C      -1.10327225      -0.22827183       0.58129964        6 
C       1.53450568       0.01471857       0.55851417        6 
C      -1.24003455       1.28223607       0.32037862        6 
O       2.54768799      -0.39285570      -0.23981677        8 
O       1.61592505       0.96373817       1.29662321        8 
O      -0.24051766       1.82701930      -0.38529041        8 
O      -2.25281019       1.89209119       0.58456444        8 
C      -0.41157553       3.19560363      -0.78408194        6 
C       3.76056607       0.37675095      -0.15871021        6 
C       0.20680203      -1.76142893      -0.88336422        6 
C      -0.00996247      -0.82063433      -2.05454950        6 
C      -1.24402113      -0.32048051      -1.94537506        6 
C      -1.86062890      -0.89953569      -0.68022492        6 
C      -1.23275242      -2.30446131      -0.71326326        6 
C       0.63812344      -1.90070431       1.61839807        6 
C      -1.85254085      -0.54579107       1.88180056        6 
H      -1.28317254       3.29763842      -1.43366557        1 
H       4.15541780       0.36520425       0.85839867        1 
H      -1.69629078       0.45247713      -2.55263169        1 
H       0.49907194       3.45463958      -1.31996003        1 
H      -0.53800733       3.83538241       0.08978522        1 
H       4.45472474      -0.10247623      -0.84587877        1 
H       3.57538055       1.40937872      -0.45859309        1 
H      -2.94241012      -0.81938278      -0.58480206        1 
H       1.00955624      -2.48741098      -0.99543881        1 
H      -2.00246183      -1.61786965       2.00770003        1 
H      -1.31132431      -0.16893300       2.75227334        1 
H      -2.82778727      -0.06154053       1.86137265        1 
H       1.60680230      -2.37525387       1.44302944        1 
H       0.68711048      -1.37003715       2.56949636        1 
H      -0.10631536      -2.68941006       1.70345236        1 
H      -1.56131923      -2.87763504      -1.58153133        1 
H      -1.39695563      -2.89729012       0.18646119        1 
H       0.75271793      -0.54351044      -2.76913230        1 
