35
Lattice="0.0 0.0 0.0 0.0 0.0 0.0 0.0 0.0 0.0" Properties=species:S:1:pos:R:3:Z:I:1 pbc="F F F"
C       1.04085391       0.33957401      -0.60269919        6 
C      -0.45874026       0.83678047      -0.37396810        6 
C       1.43558637      -1.11676893      -0.28725715        6 
C      -1.57095972      -0.19956293      -0.48561468        6 
O       0.50454169      -1.86051211       0.31508182        8 
O       2.57756167      -1.49994984      -0.42966705        8 
O      -2.66450016       0.20690977       0.20938196        8 
O      -1.54105587      -1.22976989      -1.10676366        8 
C      -3.82176598      -0.64086158       0.11098072        6 
C       0.89798414      -3.18366234       0.71067020        6 
C       1.77984376       1.13781692       0.60040367        6 
C       1.35068437       0.46572490       1.89833655        6 
C       0.06155797       0.76088755       2.09179534        6 
C      -0.37500416       1.67203501       0.95587267        6 
C       0.95310784       2.42932963       0.70157600        6 
C       1.65446321       0.69584463      -1.96222334        6 
C      -0.92734389       1.80425001      -1.52148953        6 
H      -4.15386659      -0.71690738      -0.92602675        1 
H       1.69778411      -3.14184312       1.45246944        1 
H      -0.59991804       0.36115421       2.84868873        1 
H      -4.58497842      -0.16330280       0.72210427        1 
H      -3.59866261      -1.64021173       0.48790654        1 
H       0.00245589      -3.63444864       1.13285130        1 
H       1.24137422      -3.75341700      -0.15369337        1 
H      -1.27086242       2.26356394       1.13252871        1 
H       2.85084814       1.21686136       0.42494737        1 
H      -0.26107546       2.65110351      -1.65891830        1 
H      -1.00184773       1.27537548      -2.47292419        1 
H      -1.91581881       2.19354492      -1.27048145        1 
H       2.67517968       0.31715513      -2.00244059        1 
H       1.09266898       0.24030289      -2.78119824        1 
H       1.68420651       1.77312302      -2.12131560        1 
H       1.24831873       3.03622595       1.55859472        1 
H       0.96999974       3.04786783      -0.19405889        1 
H       1.95871141      -0.23063723       2.46084384        1 
