35
Lattice="0.0 0.0 0.0 0.0 0.0 0.0 0.0 0.0 0.0" Properties=species:S:1:pos:R:3:Z:I:1 pbc="F F F"
C       1.19424464      -0.13114081      -0.46466769        6 
C       0.05504365       0.99948495      -0.52343446        6 
C       0.72239035      -1.57313046      -0.24882737        6 
C      -1.35843450       0.43209481      -0.60986562        6 
O      -0.38340856      -1.67689086       0.51168691        8 
O       1.32062295      -2.54191918      -0.65473554        8 
O      -2.17709465       0.89828820       0.35291814        8 
O      -1.73820372      -0.28102485      -1.50895661        8 
C      -3.53955858       0.44089044       0.29168234        6 
C      -0.90889169      -3.00197501       0.69475197        6 
C       2.00729141       0.32596929       0.83804394        6 
C       1.12845417       0.13131365       2.06290085        6 
C       0.15776452       1.04598165       2.00741319        6 
C       0.37902187       1.87451111       0.75271169        6 
C       1.92602197       1.86065556       0.70485413        6 
C       2.12387980      -0.14901933      -1.68749777        6 
C       0.12764474       1.89576653      -1.78837085        6 
H      -4.01081810       0.76334246      -0.63809932        1 
H      -0.16073134      -3.65530387       1.14505980        1 
H      -0.70415734       1.12913433       2.65307444        1 
H      -4.03597954       0.89034970       1.14920464        1 
H      -3.57612048      -0.64770581       0.35189542        1 
H      -1.76492669      -2.88450197       1.35617656        1 
H      -1.22122212      -3.41495743      -0.26567055        1 
H      -0.11786900       2.84321202       0.72737854        1 
H       2.99610577      -0.13021360       0.87416601        1 
H       1.07098440       2.43412851      -1.85822758        1 
H      -0.01136695       1.30815938      -2.69507763        1 
H      -0.67323843       2.64003076      -1.74668132        1 
H       2.90406367      -0.89506963      -1.54193612        1 
H       1.57861614      -0.42115485      -2.59303497        1 
H       2.59613963       0.81897641      -1.84683530        1 
H       2.36928948       2.37061172       1.56098753        1 
H       2.36172996       2.25714294      -0.21242228        1 
H       1.21908630      -0.68853686       2.76267581        1 
