35
Lattice="0.0 0.0 0.0 0.0 0.0 0.0 0.0 0.0 0.0" Properties=species:S:1:pos:R:3:Z:I:1 pbc="F F F"
C       0.37310007      -0.90437459       0.42734753        6 
C      -1.07517030      -0.25421431       0.61912029        6 
C       1.56700906       0.03672792       0.54882783        6 
C      -1.29557661       1.23729515       0.30006262        6 
O       2.56068379      -0.32942783      -0.29519913        8 
O       1.65871222       0.96302634       1.31280498        8 
O      -0.24957737       1.88112444      -0.22748226        8 
O      -2.40044232       1.73337419       0.35467805        8 
C      -0.50215780       3.20636380      -0.72039615        6 
C       3.76265584       0.45808409      -0.22961972        6 
C       0.23572601      -1.72522477      -0.90646871        6 
C      -0.06450868      -0.76733303      -2.04604667        6 
C      -1.31850847      -0.33358995      -1.88706363        6 
C      -1.85865423      -0.96441388      -0.60970292        6 
C      -1.17133511      -2.33609031      -0.69609566        6 
C       0.72005454      -1.90721049       1.58145560        6 
C      -1.76560288      -0.55815037       1.95456627        6 
H      -1.21768888       3.17349222      -1.54471763        1 
H       4.20818611       0.39810360       0.76470494        1 
H      -1.83280713       0.42397276      -2.46377211        1 
H       0.46257321       3.57417021      -1.06272112        1 
H      -0.89741390       3.84156918       0.07255905        1 
H       4.43025718       0.03117529      -0.97520505        1 
H       3.54591910       1.50209418      -0.46112372        1 
H      -2.93711752      -0.92944864      -0.46929426        1 
H       1.06572764      -2.41093716      -1.06313135        1 
H      -1.89810341      -1.63008858       2.10297505        1 
H      -1.19398408      -0.16213718       2.79699993        1 
H      -2.74945757      -0.08946170       1.96295869        1 
H       1.68508335      -2.37337712       1.36725304        1 
H       0.79800022      -1.38946259       2.53767923        1 
H      -0.01628038      -2.70093430       1.68111172        1 
H      -1.50664127      -2.90453053      -1.56499069        1 
H      -1.27702691      -2.95385512       0.19476586        1 
H       0.65794607      -0.44118509      -2.78162346        1 
