35
Lattice="0.0 0.0 0.0 0.0 0.0 0.0 0.0 0.0 0.0" Properties=species:S:1:pos:R:3:Z:I:1 pbc="F F F"
C       0.73633134      -0.63756348       0.49681661        6 
C      -0.87268878      -0.68155330       0.56795062        6 
C       1.31691188       0.74848886       0.21299970        6 
C      -1.57691324       0.69134662       0.51202303        6 
O       2.66910162       0.69705010       0.17121253        8 
O       0.70833284       1.76441850      -0.01295897        8 
O      -1.87818252       1.10012757      -0.73256759        8 
O      -1.98781368       1.26049899       1.49647263        8 
C      -2.48272352       2.39794882      -0.83462807        6 
C       3.33527109       1.92924983      -0.15751354        6 
C       1.05846271      -1.60813828      -0.72084799        6 
C       0.60171733      -0.92025016      -1.99307458        6 
C      -0.73338241      -0.91120319      -1.97698634        6 
C      -1.18962110      -1.60078304      -0.69818580        6 
C      -0.06393426      -2.65355135      -0.56686364        6 
C       1.41516551      -1.16443620       1.78121106        6 
C      -1.42569963      -1.36142865       1.83725354        6 
H      -3.41957451       2.43348249      -0.27652077        1 
H       3.09824216       2.69943711       0.57781172        1 
H      -1.39351126      -0.43050643      -2.68202119        1 
H      -2.66170419       2.55213046      -1.89717803        1 
H      -1.79779471       3.15378951      -0.44752989        1 
H       4.39784205       1.69691215      -0.14182929        1 
H       3.03089485       2.27449858      -1.14704626        1 
H      -2.21723560      -1.96454848      -0.69525834        1 
H       2.08823470      -1.96089732      -0.69994386        1 
H      -1.04381407      -2.37237863       1.96156543        1 
H      -1.19627042      -0.78427687       2.73168355        1 
H      -2.51368423      -1.42149665       1.76303700        1 
H       2.49652807      -1.16675606       1.65029879        1 
H       1.17836880      -0.53805943       2.64419604        1 
H       1.10086826      -2.18217363       2.00736810        1 
H      -0.06971929      -3.36924118      -1.39092089        1 
H      -0.05187384      -3.19954436       0.37637339        1 
H       1.25418477      -0.43566919      -2.70726470        1 
