35
Lattice="0.0 0.0 0.0 0.0 0.0 0.0 0.0 0.0 0.0" Properties=species:S:1:pos:R:3:Z:I:1 pbc="F F F"
C       0.85088566       0.67622131      -0.49568120        6 
C      -0.74551186       0.51469073      -0.60396840        6 
C       1.63861198      -0.63445630      -0.44721964        6 
C      -1.31862837      -0.84057068      -0.15661676        6 
O       2.35917959      -0.76700392       0.68822590        8 
O       1.64123234      -1.45591133      -1.32741246        8 
O      -2.62664128      -0.68002420       0.18759484        8 
O      -0.80488597      -1.92669183      -0.19388801        8 
C      -3.34150708      -1.88342678       0.51133997        6 
C       3.08209606      -2.00556082       0.82025570        6 
C       1.01513057       1.64292638       0.72828843        6 
C       0.44422933       0.97649383       1.97143386        6 
C      -0.88607907       0.96159670       1.84522121        6 
C      -1.21961464       1.58328206       0.49255001        6 
C      -0.11864894       2.65355643       0.42561837        6 
C       1.46697228       1.35209556      -1.75819945        6 
C      -1.33051539       0.79669245      -1.99732602        6 
H      -3.33185205      -2.57531866      -0.33280605        1 
H       3.82862890      -2.10000121       0.03007038        1 
H      -1.60632188       0.49011538       2.49963947        1 
H      -4.35823741      -1.56566122       0.73377956        1 
H      -2.89490206      -2.37469174       1.37761359        1 
H       3.56022908      -1.95994669       1.79652998        1 
H       2.39187162      -2.84835837       0.76406671        1 
H      -2.24926698       1.90168919       0.34667369        1 
H       2.02770687       2.03253073       0.82011634        1 
H      -1.08934433       1.80658620      -2.33060145        1 
H      -0.94462737       0.08914963      -2.73450795        1 
H      -2.41733968       0.70344886      -1.96692872        1 
H       2.54418177       1.46787401      -1.60738771        1 
H       1.32233227       0.72846279      -2.63908441        1 
H       1.05504979       2.33922058      -1.95490357        1 
H      -0.22784681       3.39986818       1.21385211        1 
H      -0.04100893       3.16141540      -0.53554120        1 
H       1.03822289       0.52077871       2.75017329        1 
