35
Lattice="0.0 0.0 0.0 0.0 0.0 0.0 0.0 0.0 0.0" Properties=species:S:1:pos:R:3:Z:I:1 pbc="F F F"
C      -0.51357988      -1.00720138       0.18676704        6 
C      -0.66663356       0.47648383       0.77522139        6 
C       0.87802519      -1.55414237      -0.16628692        6 
C       0.41653451       1.53229854       0.47386361        6 
O       1.88934276      -0.82015387       0.33464391        8 
O       1.05549588      -2.68674412      -0.55607410        8 
O       1.05629485       1.36750480      -0.69408870        8 
O       0.56222750       2.52842158       1.14736041        8 
C       1.96688445       2.40713403      -1.07648078        6 
C       3.19565827      -1.41712445       0.27231388        6 
C      -1.60757757      -1.07732045      -0.94458012        6 
C      -1.29049049      -0.07128284      -2.03491806        6 
C      -1.51443338       1.14817886      -1.53708920        6 
C      -1.94885731       0.97656321      -0.08838039        6 
C      -2.76177171      -0.32481972      -0.23334366        6 
C      -0.90176921      -2.07761896       1.27341104        6 
C      -0.97620754       0.55754918       2.27462279        6 
H       1.44588366       3.36162289      -1.17043031        1 
H       3.47473370      -1.61867819      -0.76280252        1 
H      -1.30983275       2.09749338      -2.01335234        1 
H       2.37118133       2.09526544      -2.03755795        1 
H       2.76447901       2.50870435      -0.33874165        1 
H       3.86730876      -0.68465612       0.71504377        1 
H       3.21641946      -2.35145557       0.83568069        1 
H      -2.43487836       1.83396901       0.37585067        1 
H      -1.79273904      -2.09867580      -1.27281349        1 
H      -1.89939603       0.03864495       2.52651049        1 
H      -0.16705337       0.13253662       2.87254349        1 
H      -1.08075520       1.60207131       2.56295420        1 
H      -0.92625104      -3.05828703       0.80051770        1 
H      -0.16376830      -2.11056920       2.07765414        1 
H      -1.87168363      -1.88467517       1.72092383        1 
H      -3.62479115      -0.19380087      -0.88726289        1 
H      -3.09253338      -0.76201889       0.70643592        1 
H      -0.86926209      -0.32176676      -2.99947475        1 
