35
Lattice="0.0 0.0 0.0 0.0 0.0 0.0 0.0 0.0 0.0" Properties=species:S:1:pos:R:3:Z:I:1 pbc="F F F"
C       0.64885744      -0.58141934      -0.74374788        6 
C       0.63998766       0.95145265      -0.25437911        6 
C      -0.59287486      -1.45761006      -0.49292456        6 
C      -0.68103979       1.61513498       0.14790963        6 
O      -1.10313851      -1.37849077       0.74879143        8 
O      -0.99703765      -2.27097846      -1.29367786        8 
O      -1.77311962       0.93324522      -0.24615829        8 
O      -0.75025628       2.76463737       0.51984418        8 
C      -3.03595910       1.60629451      -0.10072678        6 
C      -2.24929889      -2.20159512       1.00710724        6 
C       1.82741651      -1.15568602       0.20301621        6 
C       1.36975384      -1.12346580       1.65524447        6 
C       1.31654580       0.15584528       2.03591041        6 
C       1.75751556       0.99658071       0.85382353        6 
C       2.79905859       0.04207516       0.22527944        6 
C       1.03191192      -0.78556338      -2.21835711        6 
C       1.06999460       1.91773058      -1.41056820        6 
H      -3.23441655       1.82144350       0.95031289        1 
H      -2.01014774      -3.25761049       0.87110202        1 
H       0.92894841       0.55057484       2.96544695        1 
H      -3.77740516       0.91538670      -0.49663399        1 
H      -3.03944638       2.54044743      -0.66428227        1 
H      -2.52394530      -1.99947764       2.04047018        1 
H      -3.06711564      -1.93533016       0.33448686        1 
H       2.07042163       2.01511219       1.07573542        1 
H       2.20752677      -2.10955524      -0.16295987        1 
H       2.03475985       1.64884357      -1.83148680        1 
H       0.33710977       1.92107076      -2.22056039        1 
H       1.13738746       2.92943253      -1.01244431        1 
H       1.08395176      -1.85174306      -2.43395251        1 
H       0.28483465      -0.35866982      -2.89001475        1 
H       1.99829069      -0.34301251      -2.44909290        1 
H       3.64666509      -0.13281474       0.88896633        1 
H       3.17127488       0.34469382      -0.75282985        1 
H       1.03785354      -1.98668908       2.21415142        1 
