35
Lattice="0.0 0.0 0.0 0.0 0.0 0.0 0.0 0.0 0.0" Properties=species:S:1:pos:R:3:Z:I:1 pbc="F F F"
C       0.50883789      -0.81762266       0.41039906        6 
C      -1.02462984      -0.39051584       0.59369089        6 
C       1.54536573       0.30419581       0.47341953        6 
C      -1.45551575       1.07613181       0.37980148        6 
O       2.71888129      -0.11805961      -0.06290805        8 
O       1.39563234       1.41616349       0.90885260        8 
O      -0.73239810       1.75439651      -0.51941858        8 
O      -2.48631259       1.51745994       0.83962756        8 
C      -1.18859223       3.07760322      -0.83547923        6 
C       3.79462880       0.83559501      -0.04926757        6 
C       0.49985563      -1.69397091      -0.90064939        6 
C       0.11997706      -0.81512065      -2.07658230        6 
C      -1.17527811      -0.51527673      -1.94830638        6 
C      -1.67530628      -1.17136866      -0.66932692        6 
C      -0.83165738      -2.45924034      -0.70337336        6 
C       1.00763311      -1.72283417       1.58720179        6 
C      -1.67637489      -0.86729580       1.89789901        6 
H      -2.19614543       3.04719651      -1.25466145        1 
H       4.05112940       1.10971629       0.97551295        1 
H      -1.75238161       0.16612856      -2.55827821        1 
H      -0.47849745       3.45907130      -1.56626605        1 
H      -1.19034242       3.70233098       0.05847017        1 
H       4.63211192       0.33624601      -0.53214009        1 
H       3.51359198       1.73484357      -0.59970756        1 
H      -2.75518197      -1.26952674      -0.56544847        1 
H       1.40777069      -2.28293219      -1.01291020        1 
H      -1.60300304      -1.94719892       2.01575975        1 
H      -1.21305122      -0.39408467       2.76650441        1 
H      -2.72900588      -0.59044565       1.89824084        1 
H       2.03328406      -2.03340705       1.38351138        1 
H       0.99866003      -1.18314612       2.53597234        1 
H       0.40680267      -2.62130457       1.70645852        1 
H      -1.07266625      -3.08550730      -1.56365372        1 
H      -0.89030097      -3.06189822       0.20228564        1 
H       0.81560407      -0.42863567      -2.80918478        1 
