35
Lattice="0.0 0.0 0.0 0.0 0.0 0.0 0.0 0.0 0.0" Properties=species:S:1:pos:R:3:Z:I:1 pbc="F F F"
C       1.02135799      -0.36856734      -0.52002839        6 
C      -0.02249124       0.86330972      -0.56465310        6 
C       0.52392317      -1.60383467       0.24431936        6 
C      -1.34688651       0.58816442       0.15245022        6 
O      -0.26942357      -2.35966792      -0.55665307        8 
O       0.71228566      -1.86993629       1.40152929        8 
O      -2.38048821       1.25030521      -0.42292551        8 
O      -1.49305542      -0.06712784       1.15400475        8 
C      -3.65455258       1.11073147       0.22892231        6 
C      -0.93920740      -3.45800335       0.08595509        6 
C       2.23455000       0.29184084       0.27376368        6 
C       1.80468959       0.57599484       1.70730986        6 
C       0.93532813       1.58901314       1.67161003        6 
C       0.77574581       1.99794181       0.21959965        6 
C       2.20812709       1.72903935      -0.29043173        6 
C       1.51009678      -0.84736309      -1.90381933        6 
C      -0.30964591       1.33836821      -2.00505946        6 
H      -3.97354950       0.06708971       0.22402050        1 
H      -1.53729889      -3.09170693       0.92140554        1 
H       0.34658448       1.97613652       2.49165708        1 
H      -4.34315449       1.72336496      -0.34939982        1 
H      -3.59861890       1.46099143       1.26063760        1 
H      -1.57242744      -3.90033385      -0.68085524        1 
H      -0.21626930      -4.18921643       0.45180894        1 
H       0.35146420       2.98483728       0.03370505        1 
H       3.15630887      -0.27855281       0.15682389        1 
H       0.60903744       1.55230636      -2.54632996        1 
H      -0.86937318       0.59135098      -2.57023542        1 
H      -0.90683990       2.24876913      -1.98473631        1 
H       2.19570394      -1.68804229      -1.76867922        1 
H       0.68969220      -1.19271712      -2.53109453        1 
H       2.05301397      -0.06592128      -2.43349842        1 
H       2.94035966       2.37512740       0.19448438        1 
H       2.32777660       1.80119013      -1.37176919        1 
H       2.07615149      -0.02526197       2.56044155        1 
