35
Lattice="0.0 0.0 0.0 0.0 0.0 0.0 0.0 0.0 0.0" Properties=species:S:1:pos:R:3:Z:I:1 pbc="F F F"
C      -0.59368003      -0.95012521       0.26212349        6 
C      -0.69209778       0.57336646       0.74946360        6 
C       0.76750670      -1.45918824      -0.20421738        6 
C       0.51569594       1.47903123       0.46301659        6 
O       1.78352052      -0.92706102       0.50885123        8 
O       0.91467449      -2.41733799      -0.92556420        8 
O       1.05731640       1.29526599      -0.75654353        8 
O       0.88881946       2.35615929       1.20700166        8 
C       2.18749193       2.11642623      -1.08157328        6 
C       3.08856446      -1.47184905       0.25433164        6 
C      -1.72962232      -1.06399767      -0.82219484        6 
C      -1.36356425      -0.19375435      -2.00938587        6 
C      -1.48774786       1.08020114      -1.62640443        6 
C      -1.91943303       1.08082923      -0.16782190        6 
C      -2.81507322      -0.17607883      -0.17253952        6 
C      -0.89971582      -1.96845156       1.40391604        6 
C      -1.04701996       0.75518193       2.23159548        6 
H       1.92956440       3.17470042      -1.02209977        1 
H       3.37411972      -1.29893862      -0.78486711        1 
H      -1.21601599       1.96207474      -2.18980362        1 
H       2.45861964       1.84348074      -2.09961615        1 
H       3.01269646       1.91151014      -0.39675602        1 
H       3.75946811      -0.94390640       0.92851647        1 
H       3.10284582      -2.54413933       0.45532411        1 
H      -2.34836452       2.00897362       0.20930082        1 
H      -1.98588899      -2.09764985      -1.04700566        1 
H      -1.97882442       0.25327810       2.48568063        1 
H      -0.25843310       0.37093308       2.88094834        1 
H      -1.15772227       1.81645192       2.45131175        1 
H      -0.84655676      -2.97976894       0.99710276        1 
H      -0.17742452      -1.88839914       2.21729676        1 
H      -1.89632882      -1.82685636       1.81748661        1 
H      -3.68579282      -0.05688484      -0.81870637        1 
H      -3.14734972      -0.50044850       0.81359309        1 
H      -0.96985587      -0.56598692      -2.94519480        1 
