35
Lattice="0.0 0.0 0.0 0.0 0.0 0.0 0.0 0.0 0.0" Properties=species:S:1:pos:R:3:Z:I:1 pbc="F F F"
C      -0.58211602      -0.96848385       0.30078537        6 
C      -0.73504999       0.56780036       0.76286920        6 
C       0.77205022      -1.31968136      -0.31514591        6 
C       0.50306175       1.44590835       0.54199206        6 
O       1.76333568      -1.18589641       0.59625434        8 
O       0.96262763      -1.71697585      -1.43694449        8 
O       1.04318470       1.29963573      -0.68323528        8 
O       0.94963918       2.21719172       1.35789221        8 
C       2.21167714       2.08354157      -0.96843089        6 
C       3.08933343      -1.48276803       0.12885693        6 
C      -1.74509111      -1.11032047      -0.76501840        6 
C      -1.41322667      -0.25656642      -1.97721597        6 
C      -1.54149368       1.02213067      -1.61429798        6 
C      -1.95647561       1.04318054      -0.15368722        6 
C      -2.83541306      -0.22838125      -0.12073088        6 
C      -0.79363165      -1.99388280       1.43823935        6 
C      -1.11852867       0.73276179       2.24417017        6 
H       1.98100626       3.14893334      -0.91988500        1 
H       3.34124846      -0.84903036      -0.72295826        1 
H      -1.28619697       1.89654529      -2.19672192        1 
H       2.50745214       1.79990663      -1.97637787        1 
H       3.00492210       1.85887555      -0.25348352        1 
H       3.74786517      -1.27791234       0.97005442        1 
H       3.16359335      -2.52903658      -0.17218001        1 
H      -2.39710341       1.97068617       0.21178373        1 
H      -1.99429070      -2.15115078      -0.96902138        1 
H      -2.03486924       0.19778954       2.48615195        1 
H      -0.32615587       0.37973032       2.90522373        1 
H      -1.27323024       1.78938572       2.46347218        1 
H      -0.65222453      -3.00362289       1.04260264        1 
H      -0.08287800      -1.84929654       2.25038374        1 
H      -1.80315743      -1.94068732       1.84429143        1 
H      -3.71531211      -0.13422422      -0.75837459        1 
H      -3.15026877      -0.54075988       0.87532037        1 
H      -1.02982062      -0.64084228      -2.91028179        1 
