35
Lattice="0.0 0.0 0.0 0.0 0.0 0.0 0.0 0.0 0.0" Properties=species:S:1:pos:R:3:Z:I:1 pbc="F F F"
C       0.68392742      -0.62897477       0.60069570        6 
C      -0.92115478      -0.70510740       0.46563579        6 
C       1.28463844       0.75553073       0.32408730        6 
C      -1.61654144       0.66592335       0.43740653        6 
O       2.53676764       0.64015030      -0.18079973        8 
O       0.80608764       1.82258385       0.61415340        8 
O      -1.88610006       1.09693398      -0.81097880        8 
O      -1.92269374       1.28585086       1.42478512        8 
C      -2.46163913       2.41192255      -0.90465228        6 
C       3.24301287       1.87395545      -0.39591886        6 
C       1.14215532      -1.63817986      -0.54448131        6 
C       0.87026084      -0.93838737      -1.86956032        6 
C      -0.45518170      -0.89312295      -2.02596709        6 
C      -1.08714572      -1.59113949      -0.82970034        6 
C      -0.00502927      -2.66523902      -0.56110634        6 
C       1.22552972      -1.03854051       1.98217120        6 
C      -1.59487412      -1.42748527       1.66011079        6 
H      -3.42010477       2.44897826      -0.38454193        1 
H       3.33906868       2.42881909       0.53849875        1 
H      -1.00958192      -0.39096793      -2.80457152        1 
H      -2.59627832       2.59413109      -1.96921776        1 
H      -1.78301202       3.14523364      -0.46747452        1 
H       4.22136159       1.58548931      -0.77459215        1 
H       2.71627309       2.49113295      -1.12586018        1 
H      -2.11231849      -1.93373855      -0.96894675        1 
H       2.15309905      -2.01154616      -0.39477276        1 
H      -1.20388288      -2.42938913       1.82071739        1 
H      -1.48160872      -0.85411130       2.57813870        1 
H      -2.66662390      -1.51695687       1.46312224        1 
H       2.31451647      -0.95327300       1.98948958        1 
H       0.82560521      -0.39726584       2.76993072        1 
H       0.97254505      -2.07314293       2.21670003        1 
H       0.09275249      -3.36845368      -1.38964178        1 
H      -0.12833797      -3.22536383       0.36560542        1 
H       1.62501136      -0.47838122      -2.49116873        1 
