35
Lattice="0.0 0.0 0.0 0.0 0.0 0.0 0.0 0.0 0.0" Properties=species:S:1:pos:R:3:Z:I:1 pbc="F F F"
C       0.77107803       0.40783916      -0.60873851        6 
C      -0.81937865       0.50575727      -0.42518570        6 
C       1.49351465      -0.82985371      -0.03056322        6 
C      -1.62463757      -0.78602045      -0.29321611        6 
O       2.83627101      -0.56603473      -0.01063229        8 
O       1.06207519      -1.89063540       0.32282819        8 
O      -2.79547976      -0.53061831       0.35457322        8 
O      -1.33268046      -1.87756168      -0.69625882        8 
C      -3.69579886      -1.64479543       0.47650085        6 
C       3.66797604      -1.63315136       0.46954716        6 
C       1.23193637       1.59801528       0.37907148        6 
C       1.00150957       1.05454317       1.78759473        6 
C      -0.32042012       1.00162741       1.98068631        6 
C      -0.98894399       1.55334114       0.73091501        6 
C       0.06892473       2.59851621       0.30152437        6 
C       1.26812041       0.61133163      -2.04897530        6 
C      -1.50828084       1.08353781      -1.71314531        6 
H      -4.00805900      -1.99508139      -0.50945247        1 
H       3.55358580      -2.52115738      -0.15488267        1 
H      -0.84789278       0.56063139       2.81593825        1 
H      -4.55047684      -1.26812253       1.03484992        1 
H      -3.21829327      -2.46786206       1.01018393        1 
H       4.68707221      -1.25535301       0.41551638        1 
H       3.40765173      -1.89094757       1.49790566        1 
H      -2.01645133       1.89030656       0.84423738        1 
H       2.23231395       1.95767046       0.15211906        1 
H      -1.10666423       2.04726837      -2.01554337        1 
H      -1.40516804       0.39484204      -2.55297302        1 
H      -2.57301712       1.21575464      -1.51208276        1 
H       2.35676579       0.57833420      -2.07011295        1 
H       0.88887661      -0.17264360      -2.70901582        1 
H       0.95413329       1.57621489      -2.44695946        1 
H       0.17191384       3.39947098       1.03537247        1 
H      -0.08747826       3.03876268      -0.68229205        1 
H       1.77486444       0.66011852       2.43307702        1 
