35
Lattice="0.0 0.0 0.0 0.0 0.0 0.0 0.0 0.0 0.0" Properties=species:S:1:pos:R:3:Z:I:1 pbc="F F F"
C      -0.93193583      -0.66060528      -0.33404404        6 
C       0.58983851      -0.36759700      -0.70684903        6 
C      -1.74133777       0.48327944       0.27244952        6 
C       1.21992062       0.81442444       0.05057299        6 
O      -1.64928353       1.60100581      -0.47517793        8 
O      -2.57625578       0.33533336       1.13370905        8 
O       2.55773390       0.83721742      -0.18185385        8 
O       0.68316417       1.63165558       0.75309646        8 
C       3.29267702       1.87202824       0.49239748        6 
C      -2.41222110       2.72865325      -0.02194637        6 
C      -0.84049191      -1.93072387       0.58042534        6 
C      -0.03460716      -1.58318626       1.82159104        6 
C       1.24337611      -1.45411605       1.44966936        6 
C       1.29902178      -1.66532631      -0.06132708        6 
C       0.21585398      -2.74678501      -0.20587086        6 
C      -1.80582201      -1.01696668      -1.58097145        6 
C       0.88643882      -0.23075837      -2.20546803        6 
H       2.95544866       2.85708478       0.16546122        1 
H      -2.06641480       3.03859366       0.96555968        1 
H       2.07529816      -1.12564990       2.05852144        1 
H       4.33380249       1.71368774       0.21915566        1 
H       3.16163721       1.79163246       1.57285724        1 
H      -2.22896818       3.51568087      -0.75053615        1 
H      -3.47511439       2.48510909       0.02322903        1 
H       2.27950945      -1.85674418      -0.49258381        1 
H      -1.81211753      -2.38862791       0.75478701        1 
H       0.57594870      -1.12371099      -2.74812998        1 
H       0.36246143       0.62710209      -2.63307044        1 
H       1.95614589      -0.09307576      -2.36083037        1 
H      -2.81581090      -1.25766452      -1.24078134        1 
H      -1.87509644      -0.17979566      -2.27460624        1 
H      -1.42423713      -1.88082004      -2.12150737        1 
H       0.48931639      -3.66976940       0.30719818        1 
H      -0.05519838      -2.97979243      -1.23504187        1 
H      -0.46478516      -1.38545804       2.79330768        1 
