35
Lattice="0.0 0.0 0.0 0.0 0.0 0.0 0.0 0.0 0.0" Properties=species:S:1:pos:R:3:Z:I:1 pbc="F F F"
C       0.95938331       0.44311636      -0.62693981        6 
C      -0.58824390       0.73490615      -0.32454940        6 
C       1.60332668      -0.92976880      -0.33103838        6 
C      -1.59717638      -0.41662895      -0.39972750        6 
O       0.85129030      -1.80911993       0.32738987        8 
O       2.78397856      -1.11760087      -0.54227486        8 
O      -2.80908420       0.02631408       0.04320317        8 
O      -1.42749527      -1.55686284      -0.73778443        8 
C      -3.87948866      -0.93104980       0.00545093        6 
C       1.48508821      -3.03953184       0.70934856        6 
C       1.63241662       1.34555387       0.54231944        6 
C       1.38054160       0.60401183       1.85064543        6 
C       0.07356328       0.69855414       2.11515331        6 
C      -0.55481588       1.54843332       1.02368410        6 
C       0.63119960       2.49875100       0.71898721        6 
C       1.45180676       0.87543785      -2.01547428        6 
C      -1.19297453       1.67142062      -1.43588268        6 
H      -4.05322295      -1.27397899      -1.01628131        1 
H       2.29678649      -2.85109311       1.41483132        1 
H      -0.47791226       0.19268485       2.89655634        1 
H      -4.75351547      -0.40391043       0.38296086        1 
H      -3.64957971      -1.79231920       0.63507025        1 
H       0.69931587      -3.63170556       1.17331257        1 
H       1.88436304      -3.55267515      -0.16640476        1 
H      -1.51725391       1.99841690       1.25818120        1 
H       2.66826867       1.58561104       0.31163930        1 
H      -0.58012888       2.54351292      -1.63974090        1 
H      -1.31541976       1.12961729      -2.37668770        1 
H      -2.17551401       2.01456051      -1.11470440        1 
H       2.50961543       0.63346135      -2.10656800        1 
H       0.91628397       0.34840413      -2.80928054        1 
H       1.33355048       1.94651758      -2.17542901        1 
H       0.88071748       3.12305551       1.57788553        1 
H       0.50172391       3.13546617      -0.15452075        1 
H       2.11436429      -0.00110825       2.36661423        1 
