35
Lattice="0.0 0.0 0.0 0.0 0.0 0.0 0.0 0.0 0.0" Properties=species:S:1:pos:R:3:Z:I:1 pbc="F F F"
C       0.78802326      -0.64760070      -0.61797592        6 
C       0.39362950       0.91436689      -0.46338139        6 
C      -0.18353902      -1.59581591       0.08159947        6 
C      -0.90059140       1.09140477       0.34151762        6 
O      -1.41774898      -1.50281182      -0.47051844        8 
O       0.07585165      -2.35386969       0.98021569        8 
O      -1.90149006       1.61696296      -0.39781184        8 
O      -1.04694637       0.80903151       1.50691825        8 
C      -3.16877296       1.74691698       0.26613219        6 
C      -2.44750073      -2.29600166       0.14517084        6 
C       2.21121207      -0.69603675       0.06864707        6 
C       2.04983979      -0.45091420       1.56115090        6 
C       1.70653701       0.82905087       1.71993934        6 
C       1.65135637       1.46364140       0.33903076        6 
C       2.78616831       0.67292546      -0.35465063        6 
C       0.87821862      -1.13725714      -2.08004185        6 
C       0.27831781       1.65323371      -1.80984629        6 
H      -3.52742282       0.76817732       0.58971900        1 
H      -2.58222370      -1.99171948       1.18447276        1 
H       1.40509294       1.31783398       2.63446478        1 
H      -3.84122054       2.17556310      -0.47402432        1 
H      -3.08497218       2.40046112       1.13561412        1 
H      -3.34815972      -2.10237572      -0.43413509        1 
H      -2.18987359      -3.35543920       0.11003242        1 
H       1.70701791       2.55231769       0.30668817        1 
H       2.77297915      -1.58582851      -0.21392328        1 
H       1.20497245       1.59535138      -2.37829275        1 
H      -0.52752048       1.25459986      -2.42394619        1 
H       0.06237739       2.70844562      -1.63247302        1 
H       1.13984435      -2.19929352      -2.08932923        1 
H      -0.06953873      -1.02484155      -2.60637499        1 
H       1.65065093      -0.60457596      -2.63421667        1 
H       3.75770434       0.86675870       0.10039673        1 
H       2.86013441       0.82570277      -1.43224658        1 
H       2.07904308      -1.22283252       2.31485713        1 
