35
Lattice="0.0 0.0 0.0 0.0 0.0 0.0 0.0 0.0 0.0" Properties=species:S:1:pos:R:3:Z:I:1 pbc="F F F"
C       0.91819358      -0.42126470      -0.66399136        6 
C       0.21028295       1.00606376      -0.35211356        6 
C       0.16490558      -1.73710547      -0.41375643        6 
C      -1.17258365       1.00403147       0.33165224        6 
O      -0.97903524      -1.62055748       0.26531634        8 
O       0.55494873      -2.79825463      -0.84818123        8 
O      -2.15011755       1.35615372      -0.54178736        8 
O      -1.42332312       0.70063148       1.46921301        8 
C      -3.49018628       1.33209856      -0.02634165        6 
C      -1.71642399      -2.83074211       0.50902691        6 
C       2.21309809      -0.37678926       0.25516990        6 
C       1.77289900      -0.42645901       1.70613177        6 
C       1.19658291       0.74539200       1.98583842        6 
C       1.24753893       1.59472308       0.72221643        6 
C       2.59407180       1.11255885       0.14158099        6 
C       1.36003092      -0.53108777      -2.14746274        6 
C       0.15863802       1.95212852      -1.56940584        6 
H      -3.75128044       0.32618576       0.30690769        1 
H      -1.10112940      -3.54971076       1.05090060        1 
H       0.68813237       1.02437851       2.89549651        1 
H      -4.12591523       1.63828102      -0.85488266        1 
H      -3.59410136       2.02289180       0.81194692        1 
H      -2.57049394      -2.52594551       1.10969871        1 
H      -2.04110847      -3.27495981      -0.43361655        1 
H       1.11729456       2.66803395       0.86421326        1 
H       2.94813682      -1.11738890      -0.05734318        1 
H       1.15245304       2.15893691      -1.96100961        1 
H      -0.45467146       1.55250596      -2.37580957        1 
H      -0.28116825       2.90506605      -1.27054509        1 
H       1.87491060      -1.47909594      -2.29293157        1 
H       0.50110302      -0.51243049      -2.82198534        1 
H       2.03355356       0.27332763      -2.43394449        1 
H       3.43562403       1.36930733       0.78612361        1 
H       2.80245058       1.45325698      -0.87198954        1 
H       1.82039673      -1.30378786       2.33748184        1 
