35
Lattice="0.0 0.0 0.0 0.0 0.0 0.0 0.0 0.0 0.0" Properties=species:S:1:pos:R:3:Z:I:1 pbc="F F F"
C       0.58946580      -0.71327225      -0.71487651        6 
C       0.76458739       0.86634874      -0.42159225        6 
C      -0.84193681      -1.25603229      -0.58588711        6 
C      -0.39888732       1.61552534       0.23480980        6 
O      -1.14494059      -1.69507104       0.65266915        8 
O      -1.62463067      -1.32246356      -1.50243066        8 
O      -1.60537782       1.17566901      -0.15474171        8 
O      -0.25012572       2.57770972       0.95126160        8 
C      -2.75253252       1.88225471       0.34741050        6 
C      -2.48555404      -2.18071650       0.83009078        6 
C       1.62776088      -1.32564837       0.31166965        6 
C       1.22706105      -0.97526951       1.73991540        6 
C       1.44763093       0.33024026       1.91678610        6 
C       1.97920345       0.87615121       0.59831443        6 
C       2.80440278      -0.33590996       0.13001286        6 
C       1.00085606      -1.11215349      -2.15359127        6 
C       1.08758567       1.70059428      -1.68166287        6 
H      -2.81724073       1.77682697       1.43163202        1 
H      -2.67323074      -3.03850414       0.18220757        1 
H       1.19461398       0.93535331       2.77563894        1 
H      -3.60845059       1.41742108      -0.13742490        1 
H      -2.69123344       2.94053945       0.09122424        1 
H      -2.55481630      -2.46853038       1.87717919        1 
H      -3.20652292      -1.39532297       0.59793363        1 
H       2.47373879       1.84430606       0.64150643        1 
H       1.82384378      -2.38056217       0.11764777        1 
H       2.01786230       1.37292598      -2.14424317        1 
H       0.29049347       1.63221919      -2.42478980        1 
H       1.20530677       2.74840661      -1.39774103        1 
H       0.94044406      -2.19893557      -2.25237966        1 
H       0.32254660      -0.68382114      -2.88886600        1 
H       2.01795783      -0.81532323      -2.39711687        1 
H       3.63177117      -0.55371741       0.80646683        1 
H       3.18838666      -0.26041461      -0.88690733        1 
H       0.76634284      -1.66481084       2.43133384        1 
