35
Lattice="0.0 0.0 0.0 0.0 0.0 0.0 0.0 0.0 0.0" Properties=species:S:1:pos:R:3:Z:I:1 pbc="F F F"
C       0.74462167      -0.83687202      -0.48356873        6 
C       0.84606908       0.79047032      -0.44907523        6 
C      -0.63901479      -1.51603322      -0.57931487        6 
C      -0.45070899       1.62417845      -0.51589687        6 
O      -1.47414861      -1.25812062       0.43692817        8 
O      -0.91336024      -2.33576418      -1.42858716        8 
O      -1.35388163       1.34075012       0.43174014        8 
O      -0.60952655       2.54166343      -1.29101331        8 
C      -2.55549329       2.12785479       0.42420743        6 
C      -2.73390017      -1.94795537       0.41306820        6 
C       1.44154154      -1.21675117       0.90721284        6 
C       0.60516686      -0.72592654       2.07553449        6 
C       0.69109098       0.60620336       2.10025319        6 
C       1.58853423       1.02453459       0.95006753        6 
C       2.57362785      -0.16575369       0.95434736        6 
C       1.56395873      -1.45642874      -1.63589769        6 
C       1.73365470       1.35408559      -1.57862819        6 
H      -2.32968516       3.18133905       0.59777943        1 
H      -2.58461464      -3.02762220       0.47163959        1 
H       0.14327013       1.28543205       2.73727882        1 
H      -3.16434732       1.72711810       1.23221831        1 
H      -3.07282579       2.02923441      -0.53161721        1 
H      -3.27404066      -1.58736762       1.28620641        1 
H      -3.28279756      -1.71662585      -0.50138813        1 
H       2.01227860       2.02699393       1.01007916        1 
H       1.73098786      -2.26777180       0.93100616        1 
H       2.73063112       0.92162384      -1.57089293        1 
H       1.28958051       1.18645936      -2.55991180        1 
H       1.83182660       2.43227326      -1.45507997        1 
H       1.52222079      -2.54295969      -1.56434840        1 
H       1.15666320      -1.18550478      -2.60992724        1 
H       2.60715088      -1.15501274      -1.60147516        1 
H       3.13880633      -0.22103565       1.88496427        1 
H       3.26439927      -0.19761116       0.11400782        1 
H      -0.02366178      -1.35304106       2.69044292        1 
