35
Lattice="0.0 0.0 0.0 0.0 0.0 0.0 0.0 0.0 0.0" Properties=species:S:1:pos:R:3:Z:I:1 pbc="F F F"
C       0.82839331       0.60782881      -0.52121412        6 
C      -0.76386422       0.51759098      -0.58966240        6 
C       1.54373264      -0.73909965      -0.47067683        6 
C      -1.36353072      -0.76595742       0.00075798        6 
O       2.52446504      -0.75815190       0.45724430        8 
O       1.29205655      -1.67159751      -1.19082178        8 
O      -2.71931428      -0.71422403      -0.08753646        8 
O      -0.79217388      -1.69673532       0.50426983        8 
C      -3.42828387      -1.84293305       0.44911594        6 
C       3.22866949      -2.00779199       0.58739091        6 
C       1.08133626       1.61369182       0.65815702        6 
C       0.52577820       1.02142495       1.94321726        6 
C      -0.80745407       1.06453341       1.86467773        6 
C      -1.16163849       1.64395298       0.49968139        6 
C      -0.01886153       2.66021582       0.35133384        6 
C       1.45360019       1.20363409      -1.82310552        6 
C      -1.37937090       0.80811466      -1.96391612        6 
H      -3.14350237      -2.75699673      -0.07432458        1 
H       3.75366115      -2.25138597      -0.33784880        1 
H      -1.51897502       0.63518983       2.55795027        1 
H      -4.48255921      -1.62438602       0.29088603        1 
H      -3.21623417      -1.96071037       1.51319091        1 
H       3.93523380      -1.85971406       1.40130211        1 
H       2.52640167      -2.80838172       0.82340216        1 
H      -2.18342570       1.99427106       0.36705889        1 
H       2.11155104       1.96256651       0.69879976        1 
H      -1.06082211       1.77978635      -2.34222885        1 
H      -1.08968731       0.04634205      -2.69170712        1 
H      -2.46609745       0.81237954      -1.89277887        1 
H       2.53897170       1.25456107      -1.70067952        1 
H       1.24310846       0.56686823      -2.68197953        1 
H       1.10046405       2.20938361      -2.04022549        1 
H      -0.06599600       3.44296123       1.11004166        1 
H       0.04448013       3.12340021      -0.63303456        1 
H       1.12388560       0.55721354       2.71432751        1 
