35
Lattice="0.0 0.0 0.0 0.0 0.0 0.0 0.0 0.0 0.0" Properties=species:S:1:pos:R:3:Z:I:1 pbc="F F F"
C       0.86897227       0.72132384      -0.49851182        6 
C      -0.72703856       0.55607637      -0.58989108        6 
C       1.63504035      -0.60519571      -0.47780993        6 
C      -1.26277597      -0.81795890      -0.16618142        6 
O       2.19616051      -0.87537245       0.71759223        8 
O       1.74769581      -1.32657680      -1.43731840        8 
O      -2.58504104      -0.71712610       0.13061443        8 
O      -0.69047203      -1.87673611      -0.16785904        8 
C      -3.25453226      -1.94965515       0.44466553        6 
C       2.83382617      -2.16232904       0.82213320        6 
C       1.03326104       1.65543214       0.75510204        6 
C       0.46920330       0.96402278       1.98826566        6 
C      -0.86160735       0.94779814       1.86994947        6 
C      -1.20304669       1.59401753       0.53170971        6 
C      -0.10568701       2.67009529       0.48122371        6 
C       1.47257363       1.43295172      -1.74196957        6 
C      -1.32669415       0.86260353      -1.97190717        6 
H      -3.17707414      -2.65054942      -0.38813497        1 
H       3.66040283      -2.23969620       0.11444940        1 
H      -1.57682833       0.46304481       2.52050117        1 
H      -4.29329818      -1.67819669       0.62155957        1 
H      -2.82052275      -2.40619268       1.33592695        1 
H       3.19702026      -2.22441041       1.84600364        1 
H       2.10767078      -2.95022268       0.61823782        1 
H      -2.23506367       1.91005133       0.39535068        1 
H       2.04507908       2.04672814       0.85247923        1 
H      -1.09584580       1.88113166      -2.28565956        1 
H      -0.94051276       0.17506845      -2.72783419        1 
H      -2.41221220       0.75915224      -1.93492587        1 
H       2.54881442       1.55638911      -1.59103219        1 
H       1.33543548       0.82959535      -2.63760936        1 
H       1.04927876       2.41969130      -1.91426350        1 
H      -0.21337421       3.39822793       1.28642439        1 
H      -0.03578825       3.19884443      -0.46905899        1 
H       1.06778715       0.49759301       2.75660928        1 
