35
Lattice="0.0 0.0 0.0 0.0 0.0 0.0 0.0 0.0 0.0" Properties=species:S:1:pos:R:3:Z:I:1 pbc="F F F"
C       0.91610700       0.67081991      -0.44552776        6 
C      -0.66205874       0.42188799      -0.64191407        6 
C       1.67047695      -0.43485953       0.30652159        6 
C      -1.19425029      -0.85668079       0.00391361        6 
O       1.97065876      -1.45820526      -0.52539576        8 
O       1.96902689      -0.43052180       1.47301909        8 
O      -2.49443810      -1.04833856      -0.32946488        8 
O      -0.61758643      -1.58942072       0.76730357        8 
C      -3.14307159      -2.17802360       0.27997972        6 
C       2.51675250      -2.63060490       0.10250801        6 
C       0.90404598       1.99389144       0.43462096        6 
C       0.28188359       1.68331141       1.79042868        6 
C      -1.02736743       1.49876826       1.60050010        6 
C      -1.29578627       1.67076792       0.11558994        6 
C      -0.26437963       2.76612281      -0.21911553        6 
C       1.68568342       0.92992393      -1.75961229        6 
C      -1.09214268       0.42187461      -2.12531020        6 
H      -2.63222883      -3.10393412       0.01157608        1 
H       1.81031902      -3.01440091       0.83980849        1 
H      -1.75508558       1.16191324       2.32698433        1 
H      -4.15819127      -2.17430300      -0.11185765        1 
H      -3.15023611      -2.07575426       1.36631920        1 
H       2.66403358      -3.34892405      -0.70185432        1 
H       3.46555458      -2.40176517       0.59005205        1 
H      -2.33110635       1.83625966      -0.17891903        1 
H       1.87888927       2.48021697       0.46056246        1 
H      -0.76411127       1.32564460      -2.63537820        1 
H      -0.67699870      -0.43560447      -2.66071870        1 
H      -2.17759465       0.36620232      -2.19594772        1 
H       2.74516587       1.07457390      -1.53276263        1 
H       1.60817939       0.08873885      -2.44631596        1 
H       1.33390794       1.82835035      -2.26403339        1 
H      -0.48234697       3.70244220       0.29594891        1 
H      -0.14471023       2.96347256      -1.28541542        1 
H       0.84037469       1.53566551       2.70116665        1 
