35
Lattice="0.0 0.0 0.0 0.0 0.0 0.0 0.0 0.0 0.0" Properties=species:S:1:pos:R:3:Z:I:1 pbc="F F F"
C      -0.71786355       0.19516970      -0.81571779        6 
C      -0.07041314      -1.18034769      -0.23715695        6 
C       0.11773076       1.44625717      -0.50092592        6 
C       1.22993322      -0.94525284       0.54068563        6 
O      -0.49017299       2.30887833       0.33477115        8 
O       1.17692905       1.69682984      -1.02624704        8 
O       2.28246211      -0.84017066      -0.28942646        8 
O       1.33917065      -0.90277647       1.74372494        8 
C       3.54357507      -0.51402026       0.31510411        6 
C       0.22700347       3.52252468       0.62221570        6 
C      -2.14289171       0.17421370      -0.12480760        6 
C      -1.98968459       0.34563435       1.38101737        6 
C      -1.43982547      -0.77212558       1.86017083        6 
C      -1.23287979      -1.71584078       0.68506514        6 
C      -2.46621790      -1.33688200      -0.16942055        6 
C      -0.86463087       0.21291559      -2.35171109        6 
C       0.23607903      -2.23057068      -1.32986461        6 
H       3.48275401       0.45852868       0.80581253        1 
H       0.40584146       4.08740118      -0.29404956        1 
H      -1.10259200      -0.96382246       2.86726302        1 
H       4.25636943      -0.47874225      -0.50557028        1 
H       3.82861073      -1.27278653       1.04559094        1 
H      -0.41352967       4.08114104       1.30113446        1 
H       1.18277943       3.29534434       1.09629043        1 
H      -1.10268350      -2.76863661       0.93645257        1 
H      -2.84618394       0.84910452      -0.61253316        1 
H      -0.67071954      -2.55004300      -1.84113850        1 
H       0.94174986      -1.85826607      -2.06987919        1 
H       0.67851273      -3.11548343      -0.86391680        1 
H      -1.36034415       1.13919782      -2.65603255        1 
H       0.10761298       0.17975125      -2.84222772        1 
H      -1.47082944      -0.61777699      -2.71022874        1 
H      -3.40311184      -1.57016607       0.33747321        1 
H      -2.48592587      -1.77227369      -1.16928520        1 
H      -2.20047711       1.25747866       1.91826400        1 
