35
Lattice="0.0 0.0 0.0 0.0 0.0 0.0 0.0 0.0 0.0" Properties=species:S:1:pos:R:3:Z:I:1 pbc="F F F"
C       0.85621231      -0.78278031      -0.43792973        6 
C       0.74558970       0.84216148      -0.49686390        6 
C      -0.46517025      -1.57246354      -0.49653202        6 
C      -0.67306519       1.43924769      -0.59658199        6 
O      -1.30293424      -1.34115845       0.52623181        8 
O      -0.71318651      -2.39580505      -1.34886421        8 
O      -1.41044881       1.32897572       0.51870565        8 
O      -1.06727737       2.05781145      -1.56026420        8 
C      -2.73620586       1.87792439       0.46087309        6 
C      -2.53933020      -2.07372503       0.51087358        6 
C       1.62505944      -0.99187276       0.94724429        6 
C       0.76520425      -0.54704247       2.11650630        6 
C       0.68234393       0.78429633       2.06954175        6 
C       1.47834053       1.24897434       0.86259690        6 
C       2.61252709       0.19677248       0.89864807        6 
C       1.71634264      -1.36519542      -1.57822095        6 
C       1.51677099       1.45509185      -1.68390174        6 
H      -2.70253803       2.95590532       0.29399447        1 
H      -2.35339055      -3.14772485       0.56378032        1 
H       0.07795377       1.42512179       2.69404160        1 
H      -3.18252449       1.65286286       1.42746709        1 
H      -3.30775670       1.41227572      -0.34392948        1 
H      -3.08433780      -1.73459694       1.38945049        1 
H      -3.10223002      -1.85686224      -0.39878187        1 
H       1.77150383       2.29914623       0.85718665        1 
H       2.04958095      -1.99363413       1.01771754        1 
H       2.57230169       1.19654970      -1.65826706        1 
H       1.10247479       1.14184961      -2.64124166        1 
H       1.43504712       2.54213949      -1.64086803        1 
H       1.80696723      -2.44400664      -1.44640728        1 
H       1.25523543      -1.20235049      -2.55163445        1 
H       2.71741970      -0.94161460      -1.59124840        1 
H       3.20489415       0.27010755       1.81082964        1 
H       3.27713901       0.20844099       0.03716856        1 
H       0.23848419      -1.21310603       2.78439681        1 
