35
Lattice="0.0 0.0 0.0 0.0 0.0 0.0 0.0 0.0 0.0" Properties=species:S:1:pos:R:3:Z:I:1 pbc="F F F"
C      -0.68641491      -0.23181352      -0.74737878        6 
C       0.72254561      -0.91056957      -0.31232708        6 
C      -0.91294058       1.22852403      -0.31856703        6 
C       1.70998375      -0.02971886       0.46159988        6 
O      -2.12607960       1.39270842       0.26128989        8 
O      -0.19883462       2.16446244      -0.57759067        8 
O       2.20935057       0.95053990      -0.30353447        8 
O       2.12401785      -0.27308360       1.57244600        8 
C       3.14967333       1.83792959       0.32074220        6 
C      -2.49911299       2.74690825       0.56952382        6 
C      -1.71717298      -1.21442629      -0.04681684        6 
C      -1.58347463      -1.03788442       1.46169759        6 
C      -0.41448929      -1.57005922       1.82729684        6 
C       0.24346197      -2.12068023       0.57202117        6 
C      -1.00703963      -2.57304479      -0.21188646        6 
C      -0.91889672      -0.19451850      -2.27418134        6 
C       1.54234381      -1.43979830      -1.51638860        6 
H       2.67101140       2.37506285       1.14122663        1 
H      -2.49825145       3.35888450      -0.33389740        1 
H       0.05372304      -1.54071263       2.79966911        1 
H       3.45182468       2.53307122      -0.45912535        1 
H       4.00778143       1.28284118       0.70301493        1 
H      -3.50067656       2.68194946       0.98946944        1 
H      -1.80674710       3.17882278       1.29365466        1 
H       1.03346769      -2.85358935       0.72956347        1 
H      -2.72347536      -1.11950215      -0.45158493        1 
H       1.00736851      -2.21552588      -2.06380995        1 
H       1.80165364      -0.63925564      -2.20682453        1 
H       2.47223855      -1.88250645      -1.14861055        1 
H      -1.90271308       0.23556274      -2.48151103        1 
H      -0.17062457       0.42119498      -2.77423251        1 
H      -0.89929248      -1.19428624      -2.70635384        1 
H      -1.54232652      -3.38031980       0.28999611        1 
H      -0.81817188      -2.86285986      -1.24655442        1 
H      -2.27809496      -0.48428480       2.07583324        1 
