35
Lattice="0.0 0.0 0.0 0.0 0.0 0.0 0.0 0.0 0.0" Properties=species:S:1:pos:R:3:Z:I:1 pbc="F F F"
C      -0.62701407       0.28320506       0.72367418        6 
C       0.83787520       0.81967998       0.31747543        6 
C      -1.05449903      -1.06869840       0.12307836        6 
C       1.76897658      -0.16765762      -0.38613138        6 
O      -2.39502182      -1.07350717      -0.09812122        8 
O      -0.39340631      -2.06684825      -0.00916512        8 
O       2.09900169      -1.19144325       0.41780928        8 
O       2.30480931       0.03684470      -1.45091242        8 
C       2.91049951      -2.22599867      -0.15736328        6 
C      -2.95606071      -2.31937203      -0.54337656        6 
C      -1.54230048       1.41984215       0.07479943        6 
C      -1.45795673       1.21914146      -1.43544829        6 
C      -0.22912414       1.57864014      -1.81733730        6 
C       0.50874973       2.06195391      -0.58081466        6 
C      -0.66580366       2.67468430       0.21648222        6 
C      -0.86550571       0.13766969       2.23649441        6 
C       1.67332764       1.28567016       1.54339803        6 
H       2.35880036      -2.72563339      -0.95554082        1 
H      -2.75774776      -3.11120031       0.18063904        1 
H       0.22134813       1.46906029      -2.79310995        1 
H       3.10897263      -2.92351675       0.65351991        1 
H       3.84106474      -1.81655740      -0.55300927        1 
H      -4.02558522      -2.13949649      -0.63254751        1 
H      -2.53507743      -2.60568036      -1.50884576        1 
H       1.38164305       2.68605196      -0.76464513        1 
H      -2.54310727       1.44889001       0.49984883        1 
H       1.19570078       2.10347194       2.08150819        1 
H       1.85302921       0.46807300       2.23921806        1 
H       2.64451238       1.64663159       1.19372327        1 
H      -1.89963687      -0.16518011       2.41567239        1 
H      -0.20665390      -0.61846212       2.66815397        1 
H      -0.69796600       1.08073930       2.75691900        1 
H      -1.10305079       3.53790883      -0.28770683        1 
H      -0.42860278       2.94558503       1.24586665        1 
H      -2.22830358       0.75883918      -2.03780792        1 
