35
Lattice="0.0 0.0 0.0 0.0 0.0 0.0 0.0 0.0 0.0" Properties=species:S:1:pos:R:3:Z:I:1 pbc="F F F"
C       0.95982214      -0.64631498      -0.43279299        6 
C       0.57498154       0.93934373      -0.50135322        6 
C      -0.11535849      -1.75166570      -0.46777476        6 
C      -0.88854089       1.43474328      -0.56654373        6 
O      -1.24027002      -1.48808115       0.20467331        8 
O       0.07422064      -2.82908078      -0.98991357        8 
O      -1.69298915       1.00565574       0.41344519        8 
O      -1.24680232       2.30032052      -1.33706021        8 
C      -3.02009615       1.55214261       0.42863479        6 
C      -2.21747772      -2.54099237       0.24749813        6 
C       1.71476119      -0.73250370       0.97504427        6 
C       0.73300147      -0.45688230       2.09794191        6 
C       0.43085877       0.84280815       2.05388550        6 
C       1.19737301       1.45149575       0.89311706        6 
C       2.48449379       0.60444581       0.96812795        6 
C       1.95774536      -1.04853046      -1.54548402        6 
C       1.28891821       1.67052225      -1.65768721        6 
H      -2.99147666       2.63716733       0.54159295        1 
H      -1.81682559      -3.41758687       0.75931582        1 
H      -0.30605619       1.36186041       2.64898372        1 
H      -3.51043199       1.08863808       1.28275495        1 
H      -3.54732798       1.30631788      -0.49490595        1 
H      -3.05919690      -2.12651566       0.79892669        1 
H      -2.52030736      -2.82591277      -0.76121545        1 
H       1.30653258       2.53602232       0.90288218        1 
H       2.29754652      -1.64990548       1.05495572        1 
H       2.36593772       1.53210291      -1.62457525        1 
H       0.92725323       1.33444524      -2.63030246        1 
H       1.08196052       2.73730569      -1.59257050        1 
H       2.23986824      -2.09096057      -1.41357425        1 
H       1.50973658      -0.95883798      -2.53655329        1 
H       2.86089262      -0.44562888      -1.52331451        1 
H       3.02545293       0.76582437       1.90128443        1 
H       3.16806323       0.73649654       0.13148759        1 
H       0.28937792      -1.21127782       2.73293768        1 
