35
Lattice="0.0 0.0 0.0 0.0 0.0 0.0 0.0 0.0 0.0" Properties=species:S:1:pos:R:3:Z:I:1 pbc="F F F"
C       0.34642614       1.12401585       0.25819644        6 
C       0.67139190      -0.36570713       0.81966973        6 
C      -0.95837158       1.23084078      -0.53720138        6 
C      -0.43715068      -1.39404956       0.54892226        6 
O      -2.02911358       1.19949507       0.27516949        8 
O      -1.04939189       1.38775599      -1.73213823        8 
O      -0.10729990      -2.31260853      -0.38053893        8 
O      -1.48329819      -1.43525415       1.15105811        8 
C      -1.09741944      -3.32006710      -0.65430532        6 
C      -3.31884576       1.23755416      -0.35626743        6 
C       1.59291331       1.39307465      -0.66833088        6 
C       1.54986917       0.45112335      -1.86024967        6 
C       1.82550709      -0.77385454      -1.40978737        6 
C       2.04531052      -0.67336264       0.09380003        6 
C       2.71668637       0.71772632       0.15173000        6 
C       0.26589237       2.20243542       1.36089887        6 
C       0.85523058      -0.41864111       2.35249108        6 
H      -1.29856335      -3.91179978       0.24028413        1 
H      -3.42383628       0.40828819      -1.05750851        1 
H       1.80476926      -1.69800499      -1.96706428        1 
H      -0.66803599      -3.94148237      -1.43731823        1 
H      -2.02561832      -2.85952283      -0.99515163        1 
H      -4.03836149       1.14213892       0.45359251        1 
H      -3.45804666       2.17906560      -0.89055190        1 
H       2.57625352      -1.50671383       0.55408452        1 
H       1.70726640       2.45100531      -0.90371053        1 
H       1.65677586       0.23635704       2.69043865        1 
H      -0.06622906      -0.14932835       2.86718378        1 
H       1.11396017      -1.43926820       2.64873667        1 
H       0.03158405       3.16777468       0.90339807        1 
H      -0.51562671       1.98187178       2.08548176        1 
H       1.21469965       2.31055372       1.88496407        1 
H       3.67242598       0.73323942      -0.37288908        1 
H       2.85449193       1.11725274       1.15734973        1 
H       1.25144428       0.73573473      -2.85758628        1 
