35
Lattice="0.0 0.0 0.0 0.0 0.0 0.0 0.0 0.0 0.0" Properties=species:S:1:pos:R:3:Z:I:1 pbc="F F F"
C       0.76040485       0.59866520      -0.53896064        6 
C      -0.84159061       0.67782012      -0.56547454        6 
C       1.30200176      -0.75405469      -0.07481355        6 
C      -1.52592829      -0.69248480      -0.52373685        6 
O       2.65531986      -0.76011704      -0.09816099        8 
O       0.66311033      -1.70082992       0.31117428        8 
O      -2.18689887      -0.92726992       0.62446668        8 
O      -1.56809223      -1.43721241      -1.47422731        8 
C      -2.80454872      -2.22225802       0.72709704        6 
C       3.28468971      -1.97509317       0.34695113        6 
C       1.11248740       1.64623817       0.62021045        6 
C       0.68659499       1.01164195       1.93563549        6 
C      -0.64890243       0.98807931       1.94673142        6 
C      -1.13527676       1.63490994       0.65799512        6 
C      -0.01355087       2.68159083       0.45346643        6 
C       1.43190591       0.98327667      -1.86723689        6 
C      -1.41229645       1.31866997      -1.85670692        6 
H      -3.54965712      -2.35564685      -0.05881255        1 
H       2.98268399      -2.81283983      -0.28346447        1 
H      -1.29150445       0.51027180       2.67080152        1 
H      -3.27337316      -2.24416257       1.70884068        1 
H      -2.04455485      -3.00008910       0.64285151        1 
H       4.35414170      -1.79590330       0.25963199        1 
H       3.01322183      -2.19043964       1.38162236        1 
H      -2.16348278       1.99522461       0.66592871        1 
H       2.14237211       1.99321038       0.55684852        1 
H      -1.03947551       2.32710050      -2.02194194        1 
H      -1.18580560       0.70935648      -2.73023973        1 
H      -2.50070145       1.37730164      -1.76980096        1 
H       2.51546936       0.97094220      -1.75450569        1 
H       1.16491870       0.28095171      -2.66047726        1 
H       1.13560634       1.98234641      -2.18701416        1 
H       0.00162135       3.43349345       1.24414889        1 
H      -0.02389914       3.18439759      -0.51376289        1 
H       1.35753498       0.54804932       2.64681516        1 
