35
Lattice="0.0 0.0 0.0 0.0 0.0 0.0 0.0 0.0 0.0" Properties=species:S:1:pos:R:3:Z:I:1 pbc="F F F"
C      -0.27633377      -0.96742478       0.58290830        6 
C      -1.16021586       0.37482365       0.42584396        6 
C       1.22843763      -0.68745768       0.66172425        6 
C      -0.35531642       1.67116029       0.26596269        6 
O       1.92534521      -1.18809817      -0.37400059        8 
O       1.75882160      -0.18264153       1.62427110        8 
O       0.70150092       1.53856461      -0.55990012        8 
O      -0.64079793       2.72181482       0.78850832        8 
C       1.52653850       2.70200032      -0.73559493        6 
C       3.34533298      -0.97316229      -0.33713414        6 
C      -0.74182834      -1.80724341      -0.68047132        6 
C      -0.30275185      -1.11290518      -1.95937448        6 
C      -1.04071167      -0.00810858      -2.09039680        6 
C      -1.98527306       0.05212979      -0.90400785        6 
C      -2.24849656      -1.45783838      -0.71032921        6 
C      -0.57438885      -1.76564037       1.87175152        6 
C      -2.14061882       0.61319247       1.58745940        6 
H       0.93260579       3.54351094      -1.09398280        1 
H       3.78361171      -1.44033596       0.54597726        1 
H      -0.93030879       0.77037940      -2.83278889        1 
H       2.27223837       2.41656239      -1.47508673        1 
H       2.00265367       2.97017858       0.20876057        1 
H       3.73188323      -1.43049421      -1.24563194        1 
H       3.56392842       0.09585643      -0.32205631        1 
H      -2.85092519       0.70641077      -1.00647276        1 
H      -0.47468053      -2.86028949      -0.59569966        1 
H      -2.82509751      -0.22364275       1.71947628        1 
H      -1.61197151       0.78048518       2.52683588        1 
H      -2.73132912       1.50723630       1.38694537        1 
H       0.03054065      -2.67673156       1.87454520        1 
H      -0.31498776      -1.19201971       2.76055886        1 
H      -1.61938180      -2.06363339       1.93398372        1 
H      -2.75715177      -1.89788841      -1.56904618        1 
H      -2.79511804      -1.70996991       0.19804591        1 
H       0.52946445      -1.42457769      -2.57196492        1 
