35
Lattice="0.0 0.0 0.0 0.0 0.0 0.0 0.0 0.0 0.0" Properties=species:S:1:pos:R:3:Z:I:1 pbc="F F F"
C       1.15993891       0.23880095      -0.49194060        6 
C      -0.29787018       0.90458323      -0.47025277        6 
C       1.22698032      -1.28422509      -0.29281674        6 
C      -1.45186496      -0.08621075      -0.51741689        6 
O       0.43209725      -1.74294991       0.68988633        8 
O       1.99618181      -2.00116349      -0.88961767        8 
O      -2.52987507       0.37921842       0.15057564        8 
O      -1.45416010      -1.13010474      -1.12287304        8 
C      -3.71251306      -0.43896667       0.08398177        6 
C       0.38912118      -3.16934354       0.85416437        6 
C       1.81961207       0.95415804       0.78806444        6 
C       1.11195920       0.48609027       2.05049024        6 
C      -0.11482469       1.01403522       2.04403231        6 
C      -0.24111936       1.85508879       0.78593749        6 
C       1.21269479       2.36911366       0.66969138        6 
C       1.98309421       0.55370338      -1.74922274        6 
C      -0.59677340       1.76564916      -1.73625272        6 
H      -4.04065397      -0.55213063      -0.95059831        1 
H       1.38329508      -3.56731960       1.06186865        1 
H      -0.92676426       0.80321565       2.72620190        1 
H      -4.46336103       0.08795434       0.66882081        1 
H      -3.51716294      -1.42534588       0.50710858        1 
H      -0.27860287      -3.34275130       1.69583315        1 
H      -0.00721053      -3.63479269      -0.04972490        1 
H      -1.03836625       2.59653705       0.78483418        1 
H       2.90567515       0.86548183       0.78135615        1 
H       0.11426231       2.58095545      -1.85039045        1 
H      -0.57683467       1.15933884      -2.64274965        1 
H      -1.59356698       2.20336091      -1.64176969        1 
H       2.98227083       0.13225705      -1.64450681        1 
H       1.53514076       0.10277090      -2.63613911        1 
H       2.07860170       1.62553147      -1.91539369        1 
H       1.48983928       3.00725202       1.50948036        1 
H       1.44520301       2.88402251      -0.26232278        1 
H       1.50576013      -0.24408331       2.74352737        1 
