35
Lattice="0.0 0.0 0.0 0.0 0.0 0.0 0.0 0.0 0.0" Properties=species:S:1:pos:R:3:Z:I:1 pbc="F F F"
C      -0.63264021       0.34700597       0.70795521        6 
C       0.88070875       0.75931671       0.37855494        6 
C      -1.10424127      -0.93950610       0.02479026        6 
C       1.72278355      -0.31204004      -0.31584532        6 
O      -2.44706081      -1.06534510       0.16235770        8 
O      -0.44222069      -1.76108895      -0.55739526        8 
O       2.02438167      -1.32059384       0.52830256        8 
O       2.17537260      -0.22289399      -1.43092170        8 
C       2.69387089      -2.44741521      -0.05941539        6 
C      -3.03945358      -2.22418223      -0.44933117        6 
C      -1.44217046       1.54423967       0.02574880        6 
C      -1.31346864       1.33467755      -1.47763713        6 
C      -0.04549921       1.59860257      -1.80731549        6 
C       0.68026695       2.02151661      -0.53943934        6 
C      -0.47674624       2.72759125       0.20774442        6 
C      -0.94713980       0.22710807       2.20871679        6 
C       1.70426721       1.16492294       1.62939137        6 
H       2.04734048      -2.90237367      -0.81144734        1 
H      -2.62852178      -3.13841485      -0.01798630        1 
H       0.43340734       1.44694444      -2.76306283        1 
H       2.87284697      -3.14039551       0.76035186        1 
H       3.63513036      -2.14308377      -0.51902127        1 
H      -4.10475582      -2.14887059      -0.24143419        1 
H      -2.85710225      -2.22315662      -1.52527726        1 
H       1.60392189       2.57873182      -0.68812600        1 
H      -2.45244535       1.63841332       0.41954108        1 
H       1.27893717       2.02794990       2.14027726        1 
H       1.79040724       0.34535581       2.34102276        1 
H       2.71596200       1.43562263       1.31469809        1 
H      -2.00745621       0.01525792       2.34755098        1 
H      -0.37247927      -0.58006124       2.66892306        1 
H      -0.71243153       1.15289909       2.73383088        1 
H      -0.82217951       3.62059436      -0.31507231        1 
H      -0.26476946       2.97983459       1.24714053        1 
H      -2.08719474       0.92292215      -2.11254878        1 
