35
Lattice="0.0 0.0 0.0 0.0 0.0 0.0 0.0 0.0 0.0" Properties=species:S:1:pos:R:3:Z:I:1 pbc="F F F"
C      -0.42852356      -0.92523812       0.44787307        6 
C      -0.74355193       0.65016718       0.64587771        6 
C       0.87121277      -1.18393402      -0.32771914        6 
C       0.22185739       1.61251111      -0.05003496        6 
O       1.90374042      -1.47731234       0.48960371        8 
O       0.98323510      -1.18589291      -1.53036641        8 
O       1.50678922       1.36681525       0.28183630        8 
O      -0.10470523       2.53477179      -0.75532905        8 
C       2.49201128       2.20920317      -0.34262662        6 
C       3.16806288      -1.69386002      -0.15359067        6 
C      -1.70104544      -1.38537514      -0.37554022        6 
C      -1.73037223      -0.68528965      -1.72601798        6 
C      -2.02798428       0.59837456      -1.51067492        6 
C      -2.18000660       0.78049620      -0.00926893        6 
C      -2.80643578      -0.58229054       0.35195985        6 
C      -0.37087542      -1.71471214       1.77371109        6 
C      -0.76626112       1.10330813       2.12030864        6 
H       2.46124477       2.08029949      -1.42572892        1 
H       3.45888156      -0.81322138      -0.72866247        1 
H      -2.03778835       1.40277919      -2.23063590        1 
H       3.44909068       1.88050782       0.05683018        1 
H       2.31252169       3.25686286      -0.09820455        1 
H       3.87612070      -1.87678591       0.65211504        1 
H       3.11789240      -2.55423415      -0.82301747        1 
H      -2.70228759       1.67885690       0.31562365        1 
H      -1.80226915      -2.47099225      -0.39951460        1 
H      -1.52906006       0.57096617       2.68792310        1 
H       0.19953268       0.94778901       2.60230140        1 
H      -1.00272363       2.16989489       2.16695038        1 
H      -0.17481776      -2.76789747       1.55947010        1 
H       0.42424244      -1.36116297       2.42710577        1 
H      -1.31236361      -1.66053867       2.31749953        1 
H      -3.78267674      -0.71895125      -0.11489785        1 
H      -2.89521859      -0.77831820       1.42132850        1 
H      -1.45691677      -1.14849811      -2.66199812        1 
