35
Lattice="0.0 0.0 0.0 0.0 0.0 0.0 0.0 0.0 0.0" Properties=species:S:1:pos:R:3:Z:I:1 pbc="F F F"
C       1.09886309      -0.52286531      -0.39059153        6 
C       0.42485053       0.93536697      -0.59104810        6 
C       0.11623374      -1.69344695      -0.26766991        6 
C      -1.10765229       0.89103134      -0.66900084        6 
O      -0.93249672      -1.43325899       0.53796268        8 
O       0.25257436      -2.75842645      -0.82167199        8 
O      -1.73724594       1.29270501       0.44905454        8 
O      -1.70548265       0.66713108      -1.69728634        8 
C      -3.17236527       1.27001865       0.40006901        6 
C      -1.91589607      -2.47642945       0.65633810        6 
C       1.93484794      -0.31334849       0.94879336        6 
C       0.99510818      -0.09019263       2.11843649        6 
C       0.44021595       1.11270415       1.95999600        6 
C       0.99528567       1.71148096       0.67529805        6 
C       2.42943520       1.13645230       0.73793648        6 
C       2.06068664      -0.90506481      -1.53283305        6 
C       0.85951562       1.65823745      -1.88288191        6 
H      -3.54416039       1.95887338      -0.36013617        1 
H      -1.45877697      -3.39638697       1.02284271        1 
H      -0.34065145       1.55717351       2.55730884        1 
H      -3.50170450       1.57638438       1.39090293        1 
H      -3.52680760       0.26358465       0.17132094        1 
H      -2.64818468      -2.10212749       1.36877754        1 
H      -2.38156495      -2.66745120      -0.31192212        1 
H       0.89383153       2.79164582       0.57021299        1 
H       2.68775690      -1.09131214       1.07393199        1 
H       1.93582012       1.81744495      -1.91740985        1 
H       0.55398003       1.10534374      -2.76947369        1 
H       0.37655968       2.63810772      -1.92484054        1 
H       2.51512722      -1.87179754      -1.31775163        1 
H       1.53323687      -0.99974216      -2.48262943        1 
H       2.85392444      -0.17038323      -1.64938552        1 
H       2.98244962       1.50762455       1.60113086        1 
H       3.02691531       1.28740342      -0.16117843        1 
H       0.75269247      -0.83230975       2.86660724        1 
