35
Lattice="0.0 0.0 0.0 0.0 0.0 0.0 0.0 0.0 0.0" Properties=species:S:1:pos:R:3:Z:I:1 pbc="F F F"
C      -0.61064717       0.30045768       0.71258854        6 
C       0.88308677       0.74512808       0.31216152        6 
C      -1.15791817      -0.98699214       0.06035698        6 
C       1.81143279      -0.27793221      -0.33915065        6 
O      -2.51373511      -0.89544580      -0.03813696        8 
O      -0.58174266      -2.00782132      -0.21032478        8 
O       1.90422545      -1.40240623       0.38609831        8 
O       2.57037717      -0.01439163      -1.24483439        8 
C       2.76420637      -2.42987574      -0.12734301        6 
C      -3.18910770      -2.06417731      -0.52895226        6 
C      -1.44253744       1.51391156       0.07375513        6 
C      -1.37550326       1.30205722      -1.43662106        6 
C      -0.12276469       1.56596414      -1.82091799        6 
C       0.64906771       2.00205158      -0.58734906        6 
C      -0.47771234       2.70247533       0.20657470        6 
C      -0.86408229       0.14413972       2.22017922        6 
C       1.73030037       1.16620067       1.55529594        6 
H       2.43495247      -2.73221787      -1.12272694        1 
H      -2.99826888      -2.92052111       0.12012253        1 
H       0.31729268       1.41825149      -2.79721152        1 
H       2.66807346      -3.26108852       0.56770918        1 
H       3.79751378      -2.08178939      -0.17598607        1 
H      -4.24715844      -1.80966647      -0.52632255        1 
H      -2.85609906      -2.30408249      -1.54044996        1 
H       1.56567011       2.55741932      -0.77467501        1 
H      -2.43686417       1.61461280       0.50258860        1 
H       1.28686120       2.00041401       2.09666290        1 
H       1.86388672       0.33517764       2.24670506        1 
H       2.71942586       1.48354107       1.21552998        1 
H      -1.91666452      -0.08842807       2.39256457        1 
H      -0.25945174      -0.66345350       2.63826753        1 
H      -0.63104058       1.06396043       2.75682124        1 
H      -0.85189538       3.59074479      -0.30464884        1 
H      -0.22054829       2.96329165       1.23309318        1 
H      -2.17810809       0.89585109      -2.03641503        1 
