35
Lattice="0.0 0.0 0.0 0.0 0.0 0.0 0.0 0.0 0.0" Properties=species:S:1:pos:R:3:Z:I:1 pbc="F F F"
C       0.74600665      -0.47941435      -0.76903128        6 
C       0.50201709       1.01759549      -0.25998308        6 
C      -0.32723498      -1.52893689      -0.45835694        6 
C      -0.89512430       1.32875910       0.25876869        6 
O      -1.08998483      -1.24363062       0.61198564        8 
O      -0.41486741      -2.58100620      -1.04925153        8 
O      -1.83358160       1.00668384      -0.66252023        8 
O      -1.14499610       1.94386624       1.26605502        8 
C      -3.19615736       1.27498489      -0.30025049        6 
C      -2.04830204      -2.24113799       1.00101964        6 
C       2.02079833      -0.89029715       0.12235877        6 
C       1.57781658      -0.97858808       1.57548898        6 
C       1.32401261       0.26413821       1.99514136        6 
C       1.61550300       1.20328854       0.83750619        6 
C       2.78735450       0.44590565       0.16838846        6 
C       1.08099235      -0.60187648      -2.26283324        6 
C       0.69839977       2.08842747      -1.36987204        6 
H      -3.47238481       0.69557408       0.58307555        1 
H      -1.54920293      -3.18391910       1.22960973        1 
H       0.88016650       0.56838103       2.93203039        1 
H      -3.79214082       0.96760127      -1.15719539        1 
H      -3.34070150       2.33601350      -0.09179515        1 
H      -2.53715723      -1.84027162       1.88633394        1 
H      -2.77178616      -2.40543864       0.20066723        1 
H       1.76964237       2.24844176       1.09996807        1 
H       2.52909504      -1.76284436      -0.28629893        1 
H       1.71585079       2.09196022      -1.75729142        1 
H       0.01145444       1.93443955      -2.20077262        1 
H       0.50198554       3.07766567      -0.94815037        1 
H       1.29269423      -1.64295570      -2.50328749        1 
H       0.24138071      -0.28276974      -2.88418945        1 
H       1.95112062      -0.00325093      -2.53021764        1 
H       3.66619686       0.39259353       0.81188096        1 
H       3.08157857       0.82812665      -0.80923068        1 
H       1.38488045      -1.90261489       2.10458418        1 
