35
Lattice="0.0 0.0 0.0 0.0 0.0 0.0 0.0 0.0 0.0" Properties=species:S:1:pos:R:3:Z:I:1 pbc="F F F"
C      -0.63989627       0.40706519       0.67890103        6 
C       0.91875116       0.68984535       0.42384240        6 
C      -1.17276972      -0.85525120       0.00181799        6 
C       1.68568172      -0.42580537      -0.29221954        6 
O      -2.49038159      -1.01484921       0.27752484        8 
O      -0.57853050      -1.60719511      -0.72914917        8 
O       1.90118028      -1.47429138       0.53218667        8 
O       2.11808564      -0.36923743      -1.41612201        8 
C       2.48049757      -2.63801509      -0.08106155        6 
C      -3.13759305      -2.12921999      -0.36178444        6 
C      -1.31923935       1.65270186      -0.05364206        6 
C      -1.11435651       1.45364374      -1.54673432        6 
C       0.18497805       1.63791088      -1.79651005        6 
C       0.86184030       1.98606537      -0.47926987        6 
C      -0.28491906       2.76185203       0.21014395        6 
C      -1.02878055       0.36415541       2.16822347        6 
C       1.72356922       0.99382825       1.71062379        6 
H       1.81399765      -3.00974546      -0.86078391        1 
H      -2.67053147      -3.06808291      -0.06025877        1 
H       0.70767663       1.46650841      -2.72502147        1 
H       2.58167489      -3.36915363       0.71869058        1 
H       3.45437734      -2.40373893      -0.51313477        1 
H      -4.17269625      -2.09280076      -0.02876379        1 
H      -3.07893333      -2.03416166      -1.44734412        1 
H       1.83017944       2.47824601      -0.55908873        1 
H      -2.34266992       1.81287497       0.28145655        1 
H       1.35154397       1.87902385       2.22417009        1 
H       1.70773160       0.15386000       2.40313664        1 
H       2.76626025       1.18343022       1.44160325        1 
H      -2.10770299       0.25096975       2.26553108        1 
H      -0.55247702      -0.47644567       2.67869762        1 
H      -0.73280637       1.27942174       2.67873725        1 
H      -0.53446505       3.68433464      -0.31600104        1 
H      -0.11958467       2.98413447       1.26526909        1 
H      -1.87074721       1.09614990      -2.23335987        1 
