35
Lattice="0.0 0.0 0.0 0.0 0.0 0.0 0.0 0.0 0.0" Properties=species:S:1:pos:R:3:Z:I:1 pbc="F F F"
C       0.84110783       0.65857955      -0.49883873        6 
C      -0.75154960       0.50757399      -0.60250851        6 
C       1.61847359      -0.65651738      -0.45588645        6 
C      -1.32981506      -0.82707359      -0.10364805        6 
O       2.43031432      -0.74189967       0.62037976        8 
O       1.54537127      -1.51395914      -1.29824202        8 
O      -2.67166971      -0.68306032       0.08096557        8 
O      -0.77986371      -1.88398630       0.05432271        8 
C      -3.38110041      -1.86750467       0.47744597        6 
C       3.16090116      -1.97637536       0.74731677        6 
C       1.02045275       1.63368694       0.71702776        6 
C       0.44867471       0.98002316       1.96604928        6 
C      -0.88253385       0.97672246       1.84589724        6 
C      -1.21596882       1.59165484       0.49008708        6 
C      -0.10637123       2.65122746       0.41072908        6 
C       1.46198965       1.32138935      -1.76787964        6 
C      -1.34000949       0.78298356      -1.99433290        6 
H      -3.27973661      -2.64692622      -0.27990535        1 
H       3.84486262      -2.10559731      -0.09307320        1 
H      -1.60248926       0.51146830       2.50594474        1 
H      -4.42125654      -1.56312930       0.57562549        1 
H      -3.00042687      -2.24498784       1.42819279        1 
H       3.71272602      -1.89247344       1.68127563        1 
H       2.46806209      -2.81814512       0.77932578        1 
H      -2.24409289       1.91444606       0.34269353        1 
H       2.03637927       2.01556627       0.80149544        1 
H      -1.08021364       1.78320846      -2.34227638        1 
H      -0.97110522       0.05899156      -2.72468605        1 
H      -2.42724778       0.71027265      -1.95748664        1 
H       2.54132447       1.42151170      -1.62171799        1 
H       1.30311864       0.69759187      -2.64643348        1 
H       1.06418237       2.31399975      -1.96639958        1 
H      -0.20561133       3.40508053       1.19320473        1 
H      -0.02896896       3.15054847      -0.55483074        1 
H       1.04134881       0.52024219       2.74364504        1 
