35
Lattice="0.0 0.0 0.0 0.0 0.0 0.0 0.0 0.0 0.0" Properties=species:S:1:pos:R:3:Z:I:1 pbc="F F F"
C      -0.31834780      -1.05475219       0.29941736        6 
C      -0.77115994       0.39972715       0.80140402        6 
C       1.10609228      -1.18356517      -0.23558863        6 
C       0.02969178       1.62795590       0.33673858        6 
O       2.01420678      -0.95466132       0.73841590        8 
O       1.40417584      -1.59271840      -1.33120441        8 
O       1.16423412       1.36451166      -0.32889681        8 
O      -0.40252655       2.75186912       0.45668736        8 
C       1.80147685       2.48090865      -0.97418741        6 
C       3.39034370      -1.05441850       0.34747770        6 
C      -1.39798104      -1.38915069      -0.79549371        6 
C      -1.29569032      -0.36883437      -1.91748258        6 
C      -1.77677277       0.79002379      -1.45654743        6 
C      -2.16132519       0.56792899       0.00037677        6 
C      -2.67345039      -0.87783446      -0.08344987        6 
C      -0.38205643      -2.13612351       1.41538385        6 
C      -0.98270757       0.53132233       2.31552045        6 
H       1.12069915       2.93379809      -1.69643666        1 
H       3.61008239      -0.34218569      -0.44985845        1 
H      -1.78086661       1.74999412      -1.95494199        1 
H       2.67002751       2.06376445      -1.47903318        1 
H       2.10030394       3.22959075      -0.23991927        1 
H       3.96635969      -0.81673881       1.23945412        1 
H       3.62039961      -2.06250795      -0.00130671        1 
H      -2.80254131       1.32012082       0.45418049        1 
H      -1.37109757      -2.43384964      -1.10180321        1 
H      -1.72271776      -0.18292609       2.67687316        1 
H      -0.05261679       0.36849229       2.86545156        1 
H      -1.34182052       1.53654730       2.54050556        1 
H      -0.06595252      -3.09593542       0.99699113        1 
H       0.28405930      -1.89684544       2.24197189        1 
H      -1.38902241      -2.26641902       1.80587894        1 
H      -3.55841746      -0.95933647      -0.71645797        1 
H      -2.88313361      -1.34039801       0.88100534        1 
H      -0.82538271      -0.55915221      -2.87145434        1 
