35
Lattice="0.0 0.0 0.0 0.0 0.0 0.0 0.0 0.0 0.0" Properties=species:S:1:pos:R:3:Z:I:1 pbc="F F F"
C       0.45822703       1.05724694       0.13695533        6 
C       0.73150589      -0.36838203       0.87660973        6 
C      -0.89625352       1.07296741      -0.58277057        6 
C      -0.47663560      -1.31484746       0.78364276        6 
O      -1.84756544       1.67624754       0.16617533        8 
O      -1.14961633       0.56868770      -1.64945461        8 
O      -0.55497919      -1.99755081      -0.36737209        8 
O      -1.27170023      -1.47094811       1.68351248        8 
C      -1.70969712      -2.83531045      -0.54009678        6 
C      -3.18149400       1.65369127      -0.36978052        6 
C       1.66887327       1.11615226      -0.88865618        6 
C       1.51987586       0.03641848      -1.94548935        6 
C       1.74407821      -1.13645297      -1.35148003        6 
C       2.03686559      -0.86200871       0.11336368        6 
C       2.79206643       0.48004119      -0.03762293        6 
C       0.53580494       2.27120524       1.08348486        6 
C       1.03030272      -0.22912895       2.38053396        6 
H      -1.75266197      -3.59999816       0.23696374        1 
H      -3.52366697       0.62482171      -0.49353347        1 
H       1.63070539      -2.11972371      -1.78252323        1 
H      -1.59175391      -3.28661597      -1.52274624        1 
H      -2.62007832      -2.23504509      -0.50606571        1 
H      -3.79566978       2.17369538       0.36200307        1 
H      -3.21727768       2.16169814      -1.33472145        1 
H       2.54363761      -1.66044326       0.65649649        1 
H       1.83394018       2.12884546      -1.25759242        1 
H       1.89582070       0.40408796       2.56434505        1 
H       0.17645383       0.17255596       2.92339272        1 
H       1.24087291      -1.21677400       2.79733066        1 
H       0.31509588       3.18240306       0.52256159        1 
H      -0.18408583       2.20698052       1.89751106        1 
H       1.53239737       2.37896627       1.50896117        1 
H       3.71604287       0.36492454      -0.60492372        1 
H       3.00959306       0.99545633       0.89789809        1 
H       1.18547912       0.20422378      -2.95804150        1 
