35
Lattice="0.0 0.0 0.0 0.0 0.0 0.0 0.0 0.0 0.0" Properties=species:S:1:pos:R:3:Z:I:1 pbc="F F F"
C      -0.60176427      -0.94565014       0.29085475        6 
C      -0.71235319       0.58792474       0.75015649        6 
C       0.75509395      -1.39741609      -0.23896331        6 
C       0.52046511       1.46179835       0.48023981        6 
O       1.76203807      -0.99632406       0.56888506        8 
O       0.91274192      -2.18178195      -1.14273105        8 
O       1.05184646       1.27695695      -0.74498957        8 
O       0.94568448       2.29156235       1.24895356        8 
C       2.22400983       2.04501918      -1.05392397        6 
C       3.07652952      -1.45444269       0.21337687        6 
C      -1.75004393      -1.08059633      -0.78092823        6 
C      -1.38844676      -0.23868458      -1.99032137        6 
C      -1.50391709       1.04381184      -1.63474335        6 
C      -1.93126133       1.07902074      -0.17611896        6 
C      -2.83023908      -0.17682110      -0.14704189        6 
C      -0.86076060      -1.95658108       1.44162032        6 
C      -1.07939612       0.78517812       2.22858822        6 
H       2.01497424       3.11393553      -0.99251920        1 
H       3.33992424      -1.10952284      -0.78822928        1 
H      -1.22760499       1.91148775      -2.21758471        1 
H       2.49292797       1.76326727      -2.07005644        1 
H       3.03031207       1.79924183      -0.36022555        1 
H       3.74509340      -1.02407914       0.95573360        1 
H       3.12324398      -2.54436616       0.23799405        1 
H      -2.35808282       2.01610220       0.18098969        1 
H      -2.01112559      -2.11824466      -0.98173182        1 
H      -2.00777560       0.27695420       2.48279093        1 
H      -0.29160562       0.41766501       2.88785315        1 
H      -1.20269715       1.84818134       2.43467169        1 
H      -0.75714765      -2.97267379       1.05345217        1 
H      -0.14942825      -1.82888452       2.25728441        1 
H      -1.86829910      -1.85896794       1.84347631        1 
H      -3.70397266      -0.07067379      -0.79144698        1 
H      -3.15804027      -0.47952392       0.84788566        1 
H      -0.99598754      -0.63422055      -2.91636091        1 
