35
Lattice="0.0 0.0 0.0 0.0 0.0 0.0 0.0 0.0 0.0" Properties=species:S:1:pos:R:3:Z:I:1 pbc="F F F"
C      -0.79684085      -0.82933578      -0.31112863        6 
C       0.66137983      -0.27097657      -0.73451807        6 
C      -1.73126846       0.13143577       0.42947182        6 
C       1.04063556       1.13155475      -0.22358401        6 
O      -2.12285318       1.14520975      -0.35556342        8 
O      -2.22235420      -0.09104640       1.51282923        8 
O       2.32898450       1.16239287       0.19819237        8 
O       0.37759335       2.13443243      -0.30349743        8 
C       2.83072206       2.45369268       0.58272601        6 
C      -3.02229910       2.10090849       0.22521891        6 
C      -0.43336476      -2.07468442       0.57532036        6 
C       0.28830663      -1.58670674       1.82111226        6 
C       1.50433830      -1.18153510       1.44435981        6 
C       1.60041352      -1.36854437      -0.06722908        6 
C       0.75783360      -2.64744374      -0.22456522        6 
C      -1.64370240      -1.30103107      -1.52579736        6 
C       0.88973072      -0.18671267      -2.25733962        6 
H       2.75617836       3.15750744      -0.24763084        1 
H      -2.54340319       2.60367740       1.06687366        1 
H       2.25890179      -0.70316604       2.05129430        1 
H       3.87100264       2.29008536       0.85627423        1 
H       2.26718301       2.84348186       1.43195739        1 
H      -3.23592491       2.81444473      -0.56742889        1 
H      -3.93742242       1.61293018       0.56515777        1 
H       2.60480946      -1.37110333      -0.48602853        1 
H      -1.29001906      -2.72497263       0.74623892        1 
H       0.75608791      -1.15730573      -2.73417550        1 
H       0.20654935       0.52612139      -2.72200054        1 
H       1.91281098       0.14342427      -2.45494560        1 
H      -2.60794580      -1.67071304      -1.16578363        1 
H      -1.83783275      -0.48623207      -2.22103148        1 
H      -1.16508256      -2.11641891      -2.06735334        1 
H       1.21597956      -3.50551381       0.26936525        1 
H       0.52839818      -2.91370570      -1.25734636        1 
H      -0.16701271      -1.50650933       2.79718180        1 
