35
Lattice="0.0 0.0 0.0 0.0 0.0 0.0 0.0 0.0 0.0" Properties=species:S:1:pos:R:3:Z:I:1 pbc="F F F"
C       0.75056639      -0.63710509       0.48303860        6 
C      -0.85637706      -0.65762495       0.61130637        6 
C       1.33036728       0.73337390       0.12982851        6 
C      -1.52828448       0.72945328       0.54995941        6 
O       2.68098796       0.72422857       0.21328638        8 
O       0.72236420       1.69521764      -0.27027223        8 
O      -1.96310292       1.07256022      -0.67401253        8 
O      -1.81055042       1.36543134       1.53950111        8 
C      -2.54890002       2.37821287      -0.78655185        6 
C       3.34495373       1.92782600      -0.21190788        6 
C       1.01255473      -1.63432814      -0.73002474        6 
C       0.50991677      -0.97296648      -1.99910673        6 
C      -0.82300569      -0.95046102      -1.92961866        6 
C      -1.23310345      -1.60367028      -0.61726357        6 
C      -0.11305623      -2.66467574      -0.50653354        6 
C       1.46542280      -1.15795929       1.74764560        6 
C      -1.37338642      -1.29213909       1.91926850        6 
H      -3.41020164       2.47433111      -0.12387500        1 
H       3.02843170       2.77494077       0.39801585        1 
H      -1.50637150      -0.47786695      -2.61772273        1 
H      -2.85169837       2.47193158      -1.82776052        1 
H      -1.80655158       3.13662233      -0.53365220        1 
H       4.40713272       1.73412570      -0.07925987        1 
H       3.11953975       2.13711621      -1.25903380        1 
H      -2.26266474      -1.95762419      -0.56427476        1 
H       2.03929563      -1.99752609      -0.74253105        1 
H      -1.01220681      -2.30979103       2.05216391        1 
H      -1.09130582      -0.70011555       2.78855548        1 
H      -2.46494766      -1.32591650       1.89093273        1 
H       2.54148051      -1.17602052       1.58204407        1 
H       1.26591402      -0.51835864       2.61006833        1 
H       1.14594088      -2.16872427       1.99645032        1 
H      -0.15875994      -3.39836198      -1.31317272        1 
H      -0.06942358      -3.18975719       0.44782676        1 
H       1.13576205      -0.50685608      -2.74844660        1 
