35
Lattice="0.0 0.0 0.0 0.0 0.0 0.0 0.0 0.0 0.0" Properties=species:S:1:pos:R:3:Z:I:1 pbc="F F F"
C       0.80007129      -0.48088094      -0.71249492        6 
C       0.33699923       1.02351995      -0.35980640        6 
C      -0.02081929      -1.66771344      -0.19212569        6 
C      -1.03932866       1.18405485       0.29084922        6 
O      -1.27208543      -1.38507062       0.19875831        8 
O       0.42730743      -2.79130558      -0.17056826        8 
O      -2.02884065       1.12869843      -0.62816021        8 
O      -1.24389407       1.43389994       1.45357074        8 
C      -3.36469745       1.24820885      -0.12071641        6 
C      -2.05234062      -2.49280558       0.68608434        6 
C       2.19654591      -0.56810003       0.04567921        6 
C       1.86936873      -0.61352469       1.53229682        6 
C       1.42827277       0.59972125       1.87837974        6 
C       1.47695583       1.47604810       0.63384529        6 
C       2.71666099       0.87318946      -0.06846513        6 
C       0.96473789      -0.74041534      -2.22394192        6 
C       0.32790930       1.97121015      -1.58812727        6 
H      -3.56040208       0.47378889       0.62281979        1 
H      -1.58238932      -2.92890034       1.56832232        1 
H       1.00997824       0.90756646       2.82473266        1 
H      -4.01708121       1.12509612      -0.98296091        1 
H      -3.51834016       2.22655081       0.33838419        1 
H      -3.02387604      -2.07367581       0.93736569        1 
H      -2.14886352      -3.25727319      -0.08592391        1 
H       1.46855714       2.55108127       0.81006348        1 
H       2.82025252      -1.37153213      -0.34018561        1 
H       1.31468742       2.06449270      -2.03676607        1 
H      -0.37329587       1.64103447      -2.35224412        1 
H       0.01805680       2.96926212      -1.26626466        1 
H       1.32489917      -1.75877509      -2.37656515        1 
H       0.01550030      -0.63040973      -2.75385456        1 
H       1.68458905      -0.05454239      -2.67045861        1 
H       3.63138907       1.02463085       0.50650573        1 
H       2.88022931       1.21366291      -1.09129434        1 
H       1.88260438      -1.51073866       2.13609901        1 
