35
Lattice="0.0 0.0 0.0 0.0 0.0 0.0 0.0 0.0 0.0" Properties=species:S:1:pos:R:3:Z:I:1 pbc="F F F"
C       1.00554942      -0.54930794      -0.52028191        6 
C       0.31620840       0.90441741      -0.64824061        6 
C       0.19816231      -1.71440504       0.07376134        6 
C      -1.21517790       0.92554363      -0.58905213        6 
O      -1.13150246      -1.57400185       0.02419906        8 
O       0.73533365      -2.69057156       0.54609514        8 
O      -1.69437214       1.44541202       0.56049439        8 
O      -1.93253386       0.57174680      -1.49236945        8 
C      -3.12652908       1.47767967       0.68005047        6 
C      -1.91846818      -2.65625741       0.55214909        6 
C       2.14226058      -0.25582958       0.55916011        6 
C       1.42297675      -0.08752629       1.89358696        6 
C       0.75882437       1.07005930       1.83994266        6 
C       1.05131752       1.70805501       0.48927851        6 
C       2.50277871       1.21211728       0.27516222        6 
C       1.58943365      -1.08919651      -1.83954067        6 
C       0.59864273       1.58478949      -2.01787023        6 
H      -3.56467905       2.09850299      -0.10308258        1 
H      -1.70170949      -2.80386051       1.61107673        1 
H       0.06269842       1.46527288       2.56481279        1 
H      -3.32734439       1.90003385       1.66239903        1 
H      -3.53311777       0.46814253       0.60298181        1 
H      -2.95336242      -2.35468730       0.40556883        1 
H      -1.70849064      -3.57898677       0.00965973        1 
H       0.87165128       2.78051319       0.42163984        1 
H       2.93956475      -0.99534804       0.52989045        1 
H       1.66071415       1.68845589      -2.22687105        1 
H       0.13026673       1.03147796      -2.83018516        1 
H       0.16479953       2.58876808      -2.01234903        1 
H       2.07650026      -2.04761714      -1.65253664        1 
H       0.80619678      -1.24202338      -2.58592707        1 
H       2.33015797      -0.40803307      -2.25717418        1 
H       3.19019960       1.61387335       1.02076842        1 
H       2.90856603       1.39618501      -0.71911613        1 
H       1.37742721      -0.84242570       2.66638002        1 
