35
Lattice="0.0 0.0 0.0 0.0 0.0 0.0 0.0 0.0 0.0" Properties=species:S:1:pos:R:3:Z:I:1 pbc="F F F"
C       1.01354791       0.53935284      -0.42073888        6 
C      -0.56656464       0.50552582      -0.67236812        6 
C       1.60504057      -0.70291600       0.24187813        6 
C      -1.28938000      -0.61837124       0.07231898        6 
O       1.40039264      -1.79919767      -0.52263248        8 
O       2.31376386      -0.69676928       1.21790379        8 
O      -2.59178967      -0.67236165      -0.29581426        8 
O      -0.83526788      -1.33717549       0.92730247        8 
C      -3.40556067      -1.63594195       0.39553348        6 
C       1.85729852      -3.04469341       0.02713075        6 
C       1.18823653       1.82382447       0.47305326        6 
C       0.47435000       1.59659267       1.79637422        6 
C      -0.83942354       1.64241905       1.55844776        6 
C      -1.02194437       1.86042381       0.06282386        6 
C       0.18339874       2.77617970      -0.21638914        6 
C       1.85005953       0.69278369      -1.71878593        6 
C      -0.97973620       0.51182394      -2.15214021        6 
H      -3.00484794      -2.64185071       0.26249699        1 
H       1.32681571      -3.25312463       0.95769439        1 
H      -1.63867292       1.41717029       2.25238353        1 
H      -4.39346208      -1.55440740      -0.05298549        1 
H      -3.44786210      -1.40654637       1.46163977        1 
H       1.62213995      -3.79813256      -0.72230627        1 
H       2.93125334      -3.01379179       0.21655349        1 
H      -2.00605384       2.19237498      -0.26593720        1 
H       2.22613942       2.14460450       0.54304793        1 
H      -0.53590080       1.35401772      -2.68223225        1 
H      -0.66670767      -0.40613093      -2.65499093        1 
H      -2.06268240       0.59020972      -2.23811659        1 
H       2.91246611       0.68078787      -1.46107276        1 
H       1.66712367      -0.12689457      -2.41210930        1 
H       1.64723283       1.63367066      -2.22846669        1 
H       0.09709465       3.73338660       0.29931997        1 
H       0.37381828       2.95546050      -1.27530302        1 
H       0.96977930       1.32839285       2.71779011        1 
