35
Lattice="0.0 0.0 0.0 0.0 0.0 0.0 0.0 0.0 0.0" Properties=species:S:1:pos:R:3:Z:I:1 pbc="F F F"
C       1.17313231      -0.19445327      -0.47681695        6 
C       0.11636461       1.01888966      -0.52575957        6 
C       0.62253691      -1.60481248      -0.24444267        6 
C      -1.34094316       0.56775503      -0.62268106        6 
O      -0.58247749      -1.63550846       0.34973348        8 
O       1.24287214      -2.61046901      -0.50227942        8 
O      -2.08662544       0.92314480       0.44120340        8 
O      -1.81173009       0.05138499      -1.60918080        8 
C      -3.47589199       0.55930534       0.37941498        6 
C      -1.14644524      -2.93548176       0.59101404        6 
C       2.03178493       0.19040570       0.82009981        6 
C       1.14967346       0.01557881       2.04471665        6 
C       0.23185631       0.98452373       2.01276006        6 
C       0.49619499       1.83145038       0.77674122        6 
C       2.03885810       1.72889242       0.72113654        6 
C       2.08635268      -0.27529242      -1.71041187        6 
C       0.27456728       1.93677628      -1.76515546        6 
H      -3.96529666       1.05174513      -0.46248744        1 
H      -0.48680847      -3.52703691       1.22710233        1 
H      -0.61882383       1.10478351       2.66691655        1 
H      -3.90617965       0.89230232       1.32168841        1 
H      -3.58038424      -0.52098897       0.26831174        1 
H      -2.09574955      -2.75046804       1.08936219        1 
H      -1.30432459      -3.45843163      -0.35316667        1 
H       0.06018535       2.82965663       0.78492413        1 
H       2.98960278      -0.32812214       0.83175175        1 
H       1.26461733       2.38401631      -1.82775569        1 
H       0.07199840       1.39175783      -2.68589719        1 
H      -0.45184201       2.75215719      -1.69884953        1 
H       2.79083722      -1.09604713      -1.58346699        1 
H       1.50989172      -0.47074776      -2.61699583        1 
H       2.64928973       0.64629092      -1.85227160        1 
H       2.51631156       2.19219449       1.58542370        1 
H       2.49187383       2.11831310      -0.19050838        1 
H       1.19909868      -0.82275759       2.72705200        1 
