35
Lattice="0.0 0.0 0.0 0.0 0.0 0.0 0.0 0.0 0.0" Properties=species:S:1:pos:R:3:Z:I:1 pbc="F F F"
C       0.79154360       0.51052170      -0.52534503        6 
C      -0.80981996       0.41223754      -0.48751276        6 
C       1.57683496      -0.59170716       0.21238312        6 
C      -1.42643765      -0.96761184      -0.23797650        6 
O       2.81752360      -0.74875115      -0.32352147        8 
O       1.21784047      -1.22567172       1.16785864        8 
O      -2.77308340      -0.83524865      -0.07420488        8 
O      -0.87528724      -2.03000506      -0.13837562        8 
C      -3.49666425      -2.05295983       0.16991782        6 
C       3.63936345      -1.74463994       0.30842928        6 
C       0.99776545       1.80882525       0.43223377        6 
C       0.63484495       1.40460296       1.85506458        6 
C      -0.68907357       1.23143863       1.89596872        6 
C      -1.23325461       1.55017440       0.51690421        6 
C      -0.23948435       2.65734439       0.08840044        6 
C       1.38664749       0.77624783      -1.91484584        6 
C      -1.43477285       0.75306162      -1.88633262        6 
H      -3.40112345      -2.73210226      -0.67935012        1 
H       3.17262384      -2.72784623       0.22803057        1 
H      -1.27167211       0.82525286       2.71161673        1 
H      -4.53408350      -1.75189027       0.30190635        1 
H      -3.12208391      -2.54897418       1.06646447        1 
H       4.58495905      -1.72362254      -0.22977485        1 
H       3.79058849      -1.50887808       1.36300314        1 
H      -2.29610781       1.77471512       0.45586078        1 
H       1.98043063       2.25728512       0.28991100        1 
H      -1.10629051       1.71243298      -2.27693917        1 
H      -1.18739305      -0.01005205      -2.62810244        1 
H      -2.51917939       0.78501604      -1.78880684        1 
H       2.46012341       0.93415559      -1.83689816        1 
H       1.22779319      -0.07165048      -2.58508873        1 
H       0.95162241       1.66186002      -2.37564394        1 
H      -0.31643488       3.54124498       0.72241821        1 
H      -0.30553460       2.96084065      -0.95564552        1 
H       1.34736132       1.16087346       2.63038021        1 
