35
Lattice="0.0 0.0 0.0 0.0 0.0 0.0 0.0 0.0 0.0" Properties=species:S:1:pos:R:3:Z:I:1 pbc="F F F"
C       0.72273014      -0.66720886       0.36639510        6 
C      -0.88394629      -0.56656243       0.62693581        6 
C       1.54617496       0.62188883       0.15942299        6 
C      -1.68003376       0.76175887       0.55130115        6 
O       2.87153142       0.35638821       0.34616499        8 
O       1.18671852       1.70537163      -0.21479614        8 
O      -1.34525628       1.56988261      -0.45207184        8 
O      -2.67211993       0.95602250       1.22334435        8 
C      -2.16458544       2.73109597      -0.64774749        6 
C       3.76739587       1.44497597       0.07193049        6 
C       0.79509381      -1.53676343      -0.96648860        6 
C       0.20093557      -0.73480674      -2.10724865        6 
C      -1.11834250      -0.68090827      -1.90958047        6 
C      -1.42317073      -1.43299880      -0.62387618        6 
C      -0.35263218      -2.53904456      -0.71817086        6 
C       1.42265542      -1.46010236       1.50599994        6 
C      -1.33157790      -1.24470156       1.93628355        6 
H      -3.18929568       2.44256097      -0.89156141        1 
H       3.54669569       2.29712274       0.71663968        1 
H      -1.84160265      -0.11673374      -2.48058449        1 
H      -1.70473341       3.26482005      -1.47668376        1 
H      -2.17232206       3.35013370       0.25000483        1 
H       4.76328246       1.05754364       0.27775017        1 
H       3.68468636       1.75793329      -0.97049055        1 
H      -2.45820030      -1.74141559      -0.47908534        1 
H       1.79298282      -1.94270870      -1.12713981        1 
H      -1.04276870      -2.29197328       1.97741240        1 
H      -0.91668495      -0.73947818       2.81063679        1 
H      -2.41484728      -1.18831771       2.01646798        1 
H       2.45323247      -1.66893613       1.23015891        1 
H       1.43866626      -0.89053575       2.43788740        1 
H       0.93181346      -2.40742832       1.70505645        1 
H      -0.51623988      -3.19122525      -1.57716418        1 
H      -0.24278294      -3.14959147       0.17712697        1 
H       0.77120362      -0.21438527      -2.86453194        1 
