35
Lattice="0.0 0.0 0.0 0.0 0.0 0.0 0.0 0.0 0.0" Properties=species:S:1:pos:R:3:Z:I:1 pbc="F F F"
C      -0.72135039      -0.15663660      -0.77254322        6 
C       0.52131534      -1.06233872      -0.26410118        6 
C      -0.59359969       1.32090060      -0.38518110        6 
C       1.56256220      -0.22902738       0.49775879        6 
O      -1.71029996       1.80579395       0.19010057        8 
O       0.34484523       2.02439723      -0.67793707        8 
O       2.56840508       0.16424793      -0.30291137        8 
O       1.51962364       0.04164021       1.67470145        8 
C       3.50323505       1.09358032       0.26952675        6 
C      -1.70205479       3.21042480       0.50367304        6 
C      -1.94945011      -0.88327372      -0.08094909        6 
C      -1.86258131      -0.66788440       1.42320594        6 
C      -0.82443126      -1.37831491       1.87010241        6 
C      -0.21599757      -2.09801409       0.67447652        6 
C      -1.50028046      -2.35731890      -0.15112081        6 
C      -0.89555695      -0.13043858      -2.30584709        6 
C       1.23875561      -1.82767254      -1.39766611        6 
H       2.98557568       2.01596703       0.53636163        1 
H      -1.56372828       3.80336541      -0.40176779        1 
H      -0.40996850      -1.38427458       2.86662953        1 
H       4.23841301       1.28102125      -0.51004487        1 
H       3.97777250       0.66830766       1.15504845        1 
H      -2.67330396       3.41134864       0.95055175        1 
H      -0.90029758       3.43495649       1.20809342        1 
H       0.41234351      -2.95833866       0.90719416        1 
H      -2.89891787      -0.62646298      -0.54914490        1 
H       0.56617160      -2.51979581      -1.90104842        1 
H       1.66771395      -1.15683721      -2.13956404        1 
H       2.05900668      -2.41285782      -0.97498751        1 
H      -1.76444924       0.48191965      -2.56330405        1 
H      -0.02210981       0.29901830      -2.79684833        1 
H      -1.06671650      -1.12950943      -2.70687367        1 
H      -2.19330586      -3.02298908       0.36454003        1 
H      -1.32989447      -2.73415037      -1.16037842        1 
H      -2.47459118       0.02667150       1.97895682        1 
