35
Lattice="0.0 0.0 0.0 0.0 0.0 0.0 0.0 0.0 0.0" Properties=species:S:1:pos:R:3:Z:I:1 pbc="F F F"
C       0.16059247      -0.97317254       0.49621530        6 
C      -1.16868463      -0.07726614       0.51805379        6 
C       1.45853266      -0.17713709       0.59040856        6 
C      -1.01208957       1.43555434       0.29912945        6 
O       2.39645564      -0.63492677      -0.26475354        8 
O       1.66079091       0.71126628       1.38186181        8 
O       0.00507326       1.76967120      -0.51244864        8 
O      -1.80475664       2.25070256       0.71191972        8 
C       0.16604547       3.17042404      -0.78636802        6 
C       3.67416320       0.02402400      -0.20868554        6 
C      -0.02914676      -1.86284258      -0.79298249        6 
C      -0.00802611      -0.97250543      -2.02155360        6 
C      -1.13841300      -0.26054706      -2.01953332        6 
C      -1.92614621      -0.65407680      -0.77972348        6 
C      -1.54739250      -2.14794228      -0.70308689        6 
C       0.29186589      -1.91282758       1.73009138        6 
C      -2.04154583      -0.26560964       1.76560058        6 
H      -0.72089489       3.56807835      -1.28240805        1 
H       4.11901735      -0.08434225       0.78160704        1 
H      -1.40918097       0.54141439      -2.69303924        1 
H       1.03367907       3.23853076      -1.43937551        1 
H       0.33817821       3.71907024       0.14036351        1 
H       4.28717969      -0.46735156      -0.96123988        1 
H       3.56193032       1.08496267      -0.43678783        1 
H      -2.98416978      -0.39397787      -0.77611748        1 
H       0.64106520      -2.72052925      -0.80976974        1 
H      -2.32945613      -1.30689520       1.90278875        1 
H      -1.51910808       0.06965734       2.66350498        1 
H      -2.94659824       0.33293879       1.67192869        1 
H       1.22029688      -2.48409339       1.64303914        1 
H       0.33105233      -1.34469280       2.65924722        1 
H      -0.52698568      -2.62823132       1.79398474        1 
H      -1.91298408      -2.70801333      -1.56488128        1 
H      -1.86785658      -2.64761252       0.21084286        1 
H       0.83271220      -0.87255906      -2.69316691        1 
