35
Lattice="0.0 0.0 0.0 0.0 0.0 0.0 0.0 0.0 0.0" Properties=species:S:1:pos:R:3:Z:I:1 pbc="F F F"
C       0.73882921      -0.58756935       0.57391740        6 
C      -0.86104077      -0.71070310       0.52960329        6 
C       1.27386935       0.79279540       0.17842589        6 
C      -1.59419516       0.63886952       0.50739147        6 
O       2.61735915       0.73729512       0.01149004        8 
O       0.65082784       1.81352286       0.03352875        8 
O      -2.10119179       0.94437673      -0.70181152        8 
O      -1.78298321       1.31086771       1.49189349        8 
C      -2.74094899       2.22783634      -0.80258644        6 
C       3.25320384       1.96810827      -0.37348195        6 
C       1.17078848      -1.60391270      -0.58287972        6 
C       0.80433742      -0.93231230      -1.89742255        6 
C      -0.52916292      -0.92993203      -1.97850487        6 
C      -1.07190446      -1.62886702      -0.73993773        6 
C       0.05704671      -2.66405968      -0.51408649        6 
C       1.36650317      -0.96662803       1.92608183        6 
C      -1.45988292      -1.42211215       1.76933486        6 
H      -3.60273020       2.28066935      -0.13549764        1 
H       3.07866306       2.74009817       0.37724004        1 
H      -1.14101128      -0.44643043      -2.72508652        1 
H      -3.05449032       2.31503143      -1.84118645        1 
H      -2.03167057       3.01495491      -0.54451999        1 
H       4.31348561       1.73605905      -0.44726491        1 
H       2.86759589       2.31179272      -1.33510898        1 
H      -2.09103439      -2.00624435      -0.81831458        1 
H       2.20025707      -1.93960835      -0.47680503        1 
H      -1.06238304      -2.42465262       1.91017411        1 
H      -1.28661006      -0.84305616       2.67460005        1 
H      -2.54194301      -1.50901167       1.63924631        1 
H       2.45294229      -0.90454397       1.85851481        1 
H       1.03332110      -0.29336893       2.71940183        1 
H       1.10313511      -1.98512558       2.21256055        1 
H       0.12887422      -3.38249783      -1.33257338        1 
H       0.00663207      -3.20716070       0.42951457        1 
H       1.50534265      -0.44445808      -2.56161827        1 
