35
Lattice="0.0 0.0 0.0 0.0 0.0 0.0 0.0 0.0 0.0" Properties=species:S:1:pos:R:3:Z:I:1 pbc="F F F"
C       0.76613305       0.60103689      -0.53578515        6 
C      -0.83517230       0.65613080      -0.58017739        6 
C       1.31748359      -0.73295090      -0.03051168        6 
C      -1.49195070      -0.72526386      -0.52920759        6 
O       2.66710655      -0.76423151      -0.12199408        8 
O       0.68551105      -1.64091492       0.44935458        8 
O      -2.24120419      -0.92013102       0.57121578        8 
O      -1.43399039      -1.51634460      -1.44055920        8 
C      -2.84500415      -2.22100986       0.68529025        6 
C       3.30089076      -1.95827702       0.37119618        6 
C       1.08610292       1.67084879       0.61571425        6 
C       0.64741795       1.05390879       1.93552488        6 
C      -0.68752250       1.01109622       1.92586197        6 
C      -1.16188946       1.63010706       0.61981701        6 
C      -0.05124808       2.68808362       0.41423148        6 
C       1.44842305       0.98105600      -1.85833927        6 
C      -1.40246326       1.26133403      -1.89141348        6 
H      -3.51923246      -2.40682769      -0.15229059        1 
H       2.94073688      -2.83250379      -0.17303638        1 
H      -1.33466827       0.53225562       2.64540449        1 
H      -3.39447990      -2.20534400       1.62437940        1 
H      -2.06850618      -2.98687046       0.70338693        1 
H       4.36547952      -1.81210928       0.20149216        1 
H       3.09506307      -2.08948503       1.43481206        1 
H      -2.19471183       1.97632754       0.60560358        1 
H       2.11226140       2.03102378       0.56227380        1 
H      -1.04962782       2.27500733      -2.06912276        1 
H      -1.14994165       0.64235620      -2.75121291        1 
H      -2.49305164       1.29789437      -1.81982073        1 
H       2.53035283       0.99157054      -1.73193906        1 
H       1.20614113       0.26294968      -2.64514106        1 
H       1.13704768       1.96980217      -2.19557406        1 
H      -0.05820098       3.45364914       1.19168136        1 
H      -0.05326670       3.17327306      -0.56207957        1 
H       1.31202200       0.60766091       2.66351090        1 
