35
Lattice="0.0 0.0 0.0 0.0 0.0 0.0 0.0 0.0 0.0" Properties=species:S:1:pos:R:3:Z:I:1 pbc="F F F"
C       0.76923415       0.33375552      -0.60932936        6 
C      -0.77917618       0.72377858      -0.41535474        6 
C       1.13380042      -1.09723505      -0.22363023        6 
C      -1.62411301      -0.28752724       0.38829795        6 
O       2.48030531      -1.24130863      -0.16742138        8 
O       0.37692445      -2.00254684       0.01825849        8 
O      -2.63857731      -0.79008322      -0.35279977        8 
O      -1.43561917      -0.62965767       1.52764733        8 
C      -3.42227079      -1.81353078       0.28317289        6 
C       2.95540437      -2.55596250       0.17370713        6 
C       1.53693516       1.44764634       0.20346761        6 
C       1.23119285       1.26977869       1.67749142        6 
C      -0.04599999       1.61547697       1.86203866        6 
C      -0.61264489       2.02813362       0.50712175        6 
C       0.64845673       2.67281269      -0.10699752        6 
C       1.20863841       0.40684296      -2.10358341        6 
C      -1.50877152       1.10850580      -1.71363987        6 
H      -2.78024582      -2.64176901       0.58565297        1 
H       2.63319701      -3.28478377      -0.57229741        1 
H      -0.62490217       1.51985197       2.76801896        1 
H      -4.14249262      -2.13456234      -0.46697992        1 
H      -3.93497403      -1.41628225       1.16100441        1 
H       4.04041265      -2.47785266       0.18745378        1 
H       2.57788960      -2.85702681       1.15212874        1 
H      -1.52377844       2.62658441       0.52774778        1 
H       2.58827199       1.50341373      -0.07198647        1 
H      -1.02025122       1.94131414      -2.21831069        1 
H      -1.57448586       0.27271079      -2.41038209        1 
H      -2.52960783       1.41575106      -1.48311534        1 
H       2.27621802       0.19592307      -2.17340674        1 
H       0.67826314      -0.32765235      -2.71354899        1 
H       1.02976347       1.39130154      -2.52977717        1 
H       0.96653095       3.55789588       0.44484222        1 
H       0.56387769       2.92305660      -1.16471605        1 
H       1.90271351       0.82664688       2.40027569        1 
