35
Lattice="0.0 0.0 0.0 0.0 0.0 0.0 0.0 0.0 0.0" Properties=species:S:1:pos:R:3:Z:I:1 pbc="F F F"
C      -1.03576657      -0.46114855      -0.36921971        6 
C       0.52827055      -0.52074198      -0.67007367        6 
C      -1.57770299       0.83900365       0.22108762        6 
C       1.34978115       0.50920713       0.11597355        6 
O      -1.11118503       1.91221325      -0.45333462        8 
O      -2.51647950       0.89904048       0.97886082        8 
O       2.64252668       0.50070342      -0.28973109        8 
O       0.96941663       1.20439811       1.02428049        8 
C       3.53097961       1.36681863       0.43742975        6 
C      -1.62901175       3.18721101      -0.04588637        6 
C      -1.28151069      -1.73044711       0.52312613        6 
C      -0.50233331      -1.58108660       1.81913833        6 
C       0.79409780      -1.73036419       1.53148830        6 
C       0.90351523      -1.93186325       0.02525261        6 
C      -0.37825482      -2.75010848      -0.21544225        6 
C      -1.91115303      -0.58282064      -1.65500071        6 
C       0.91120426      -0.51168721      -2.15473920        6 
H       3.19238205       2.40191154       0.37395311        1 
H      -1.35601855       3.38704852       0.99145576        1 
H       1.63284053      -1.58910791       2.20023580        1 
H       4.50260501       1.25046734      -0.03790726        1 
H       3.57822882       1.07148898       1.48700936        1 
H      -1.16385550       3.91514221      -0.70756369        1 
H      -2.71534946       3.21343217      -0.14734162        1 
H       1.84635743      -2.33244578      -0.34497782        1 
H      -2.33839203      -1.96804167       0.62704345        1 
H       0.41627679      -1.31862734      -2.69516112        1 
H       0.63324735       0.43289292      -2.62778967        1 
H       1.98680984      -0.64146477      -2.26421964        1 
H      -2.96444877      -0.55176756      -1.36724772        1 
H      -1.72498435       0.24102876      -2.34338781        1 
H      -1.74175606      -1.51856943      -2.18483790        1 
H      -0.34667574      -3.71606493       0.29012660        1 
H      -0.62055733      -2.90648150      -1.26681364        1 
H      -0.94045198      -1.29798766       2.76578127        1 
