35
Lattice="0.0 0.0 0.0 0.0 0.0 0.0 0.0 0.0 0.0" Properties=species:S:1:pos:R:3:Z:I:1 pbc="F F F"
C      -0.70056717       0.27185355      -0.80191234        6 
C      -0.15779458      -1.16218184      -0.26109005        6 
C       0.22274484       1.46273276      -0.49892824        6 
C       1.15314628      -1.09630050       0.53194908        6 
O      -0.31182118       2.35303309       0.36158239        8 
O       1.28342946       1.65438493      -1.04338798        8 
O       2.20381932      -0.88872242      -0.27846715        8 
O       1.26897744      -1.28911809       1.71988120        8 
C       3.49037951      -0.77705248       0.34938105        6 
C       0.47978185       3.52383240       0.62942055        6 
C      -2.11090786       0.34961007      -0.08742196        6 
C      -1.91690322       0.46269255       1.41952500        6 
C      -1.46431041      -0.71433119       1.85744110        6 
C      -1.35568149      -1.63413978       0.64904389        6 
C      -2.56175380      -1.12605261      -0.17185239        6 
C      -0.87676122       0.32594616      -2.33606787        6 
C       0.07787936      -2.20056189      -1.38256135        6 
H       3.49881370       0.05862044       1.05088457        1 
H       0.65762357       4.08378477      -0.29015353        1 
H      -1.13441568      -0.96949270       2.85290944        1 
H       4.19151258      -0.59674057      -0.46213273        1 
H       3.73952775      -1.69677310       0.88140392        1 
H      -0.10566019       4.11281158       1.33208062        1 
H       1.43827644       3.24366426       1.06839396        1 
H      -1.30855277      -2.70118077       0.86567578        1 
H      -2.76082043       1.09753748      -0.54138004        1 
H      -0.84500564      -2.43766085      -1.91098172        1 
H       0.81734419      -1.86070452      -2.10554660        1 
H       0.44709232      -3.12954195      -0.93860446        1 
H      -1.30278424       1.29395426      -2.61500611        1 
H       0.07993719       0.22427256      -2.84702796        1 
H      -1.55467767      -0.44671025      -2.69573118        1 
H      -3.50922249      -1.29709144       0.34035014        1 
H      -2.62926991      -1.52640534      -1.18427498        1 
H      -2.04097085       1.37328662       1.98545149        1 
