35
Lattice="0.0 0.0 0.0 0.0 0.0 0.0 0.0 0.0 0.0" Properties=species:S:1:pos:R:3:Z:I:1 pbc="F F F"
C      -0.69622791      -0.30456342      -0.67220110        6 
C       0.79870951      -0.82391441      -0.37554612        6 
C      -1.01016313       1.09517700      -0.14268627        6 
C       1.67734310       0.17318754       0.39979320        6 
O      -2.34908201       1.29657953      -0.13342168        8 
O      -0.22702986       1.94054989       0.21000198        8 
O       2.42782407       0.92085104      -0.43608073        8 
O       1.71729753       0.29599965       1.59836384        8 
C       3.14335070       2.00584161       0.17629350        6 
C      -2.79274205       2.58733306       0.31972298        6 
C      -1.59305431      -1.39693012       0.04441798        6 
C      -1.40474388      -1.22757587       1.54298354        6 
C      -0.16515331      -1.63308031       1.83473128        6 
C       0.48588679      -2.09121578       0.53466068        6 
C      -0.75236780      -2.66680215      -0.18855008        6 
C      -1.03110613      -0.24406941      -2.18249739        6 
C       1.57305362      -1.28089974      -1.62958359        6 
H       2.43788635       2.67799538       0.66636683        1 
H      -2.40807676       3.37376933      -0.33173001        1 
H       0.34215987      -1.56569827       2.78433023        1 
H       3.65643252       2.51166479      -0.63940908        1 
H       3.86143537       1.63172574       0.90771920        1 
H      -3.87927921       2.55191937       0.27455325        1 
H      -2.45559670       2.76942058       1.34103471        1 
H       1.35250117      -2.74362519       0.64248768        1 
H      -2.61816682      -1.39329303      -0.32161478        1 
H       1.07996849      -2.11220160      -2.13254053        1 
H       1.70862335      -0.47334881      -2.34691969        1 
H       2.56830413      -1.62149778      -1.33430555        1 
H      -2.07213947       0.05538204      -2.31045304        1 
H      -0.40097853       0.47938185      -2.70458951        1 
H      -0.89891847      -1.21394066      -2.66065627        1 
H      -1.16854845      -3.53343358       0.32702665        1 
H      -0.59444254      -2.91858723      -1.23791802        1 
H      -2.11743528      -0.75429892       2.20486829        1 
