35
Lattice="0.0 0.0 0.0 0.0 0.0 0.0 0.0 0.0 0.0" Properties=species:S:1:pos:R:3:Z:I:1 pbc="F F F"
C      -1.03143075      -0.47368214      -0.38291095        6 
C       0.53638828      -0.52108702      -0.67224178        6 
C      -1.57486951       0.81763930       0.22499251        6 
C       1.33907798       0.52871198       0.10533001        6 
O      -1.16697582       1.89509780      -0.48081678        8 
O      -2.46071275       0.86513551       1.04419406        8 
O       2.63513397       0.52992800      -0.28789282        8 
O       0.94151849       1.23138177       1.00077941        8 
C       3.50744518       1.41441691       0.43699597        6 
C      -1.66632577       3.16478604      -0.03504762        6 
C      -1.26876400      -1.74526329       0.50989454        6 
C      -0.50329704      -1.58138111       1.81261316        6 
C       0.79744979      -1.71475963       1.53690611        6 
C       0.92272502      -1.92174665       0.03298125        6 
C      -0.34722322      -2.75570981      -0.21710294        6 
C      -1.90035483      -0.59840070      -1.67011154        6 
C       0.92627864      -0.51933028      -2.15562074        6 
H       3.15694447       2.44460126       0.36021530        1 
H      -1.31853475       3.36572602       0.97949160        1 
H       1.62849392      -1.56006921       2.21229194        1 
H       4.48404060       1.30484686      -0.02963816        1 
H       3.54998495       1.13016989       1.48982936        1 
H      -1.25924157       3.89791419      -0.72860228        1 
H      -2.75725772       3.17961174      -0.05557283        1 
H       1.87353999      -2.31264860      -0.32714215        1 
H      -2.32343956      -1.99608824       0.60565409        1 
H       0.43996536      -1.33389956      -2.69240781        1 
H       0.64325707       0.41942972      -2.63716496        1 
H       2.00342807      -0.64157689      -2.25944021        1 
H      -2.95541573      -0.56143253      -1.38813797        1 
H      -1.70849489       0.22036442      -2.36263127        1 
H      -1.73288572      -1.53907565      -2.19227832        1 
H      -0.30890554      -3.72032569       0.29055359        1 
H      -0.57852444      -2.91644854      -1.27045283        1 
H      -0.95401537      -1.29923562       2.75341601        1 
