35
Lattice="0.0 0.0 0.0 0.0 0.0 0.0 0.0 0.0 0.0" Properties=species:S:1:pos:R:3:Z:I:1 pbc="F F F"
C       0.74831899      -0.72067899       0.40399818        6 
C      -0.82694749      -0.54272730       0.70836913        6 
C       1.40034822       0.56751695      -0.10531290        6 
C      -1.30486634       0.91511444       0.59289025        6 
O       2.70641516       0.65127066       0.22600890        8 
O       0.86064474       1.39984883      -0.79472485        8 
O      -1.99786111       1.17244747      -0.52711170        8 
O      -1.21581861       1.70641362       1.50387494        8 
C      -2.42130069       2.53213687      -0.71212529        6 
C       3.40329546       1.80918817      -0.27002492        6 
C       0.73521940      -1.80527445      -0.76875559        6 
C       0.12735697      -1.18472475      -2.01217616        6 
C      -1.17592666      -1.02091916      -1.77613048        6 
C      -1.45978121      -1.52698906      -0.37036676        6 
C      -0.44436470      -2.69321028      -0.31761176        6 
C       1.54181343      -1.27250904       1.60310747        6 
C      -1.25679170      -0.98648263       2.12114130        6 
H      -3.05056470       2.85804462       0.11726468        1 
H       2.94294255       2.72112218       0.11271797        1 
H      -1.89852895      -0.52970258      -2.40888290        1 
H      -2.98138177       2.53586125      -1.64527851        1 
H      -1.54791822       3.18136240      -0.78776880        1 
H       4.42317747       1.71037244       0.09490273        1 
H       3.38315319       1.82911639      -1.36078177        1 
H      -2.50092986      -1.76272913      -0.15034229        1 
H       1.70918188      -2.27958118      -0.88838916        1 
H      -1.03931603      -2.03707450       2.30434436        1 
H      -0.77965081      -0.38278459       2.89103660        1 
H      -2.33670866      -0.85033664       2.22115494        1 
H       2.57236788      -1.46857078       1.30932020        1 
H       1.56487321      -0.56139787       2.43095024        1 
H       1.11484627      -2.20453546       1.97026192        1 
H      -0.67174412      -3.46886574      -1.04983734        1 
H      -0.32175194      -3.15139518       0.66360841        1 
H       0.68729784      -0.83610072      -2.86905750        1 
