35
Lattice="0.0 0.0 0.0 0.0 0.0 0.0 0.0 0.0 0.0" Properties=species:S:1:pos:R:3:Z:I:1 pbc="F F F"
C      -0.45285290      -1.03342384       0.28077497        6 
C      -0.78035072       0.46558917       0.77092891        6 
C       0.94481847      -1.24872076      -0.30559030        6 
C       0.26894391       1.55453853       0.51322126        6 
O       1.88018761      -1.21417282       0.67254906        8 
O       1.21591560      -1.44118178      -1.46367844        8 
O       1.08719129       1.28198193      -0.51403447        8 
O       0.31073648       2.60013815       1.11980530        8 
C       2.00891694       2.31036396      -0.90880569        6 
C       3.24393719      -1.33418938       0.23949336        6 
C      -1.56266136      -1.25480860      -0.82888593        6 
C      -1.30850963      -0.30412621      -1.98801712        6 
C      -1.61247117       0.92862365      -1.57301315        6 
C      -2.05800291       0.82103534      -0.12563235        6 
C      -2.77016824      -0.54706268      -0.17261889        6 
C      -0.61608973      -2.10589813       1.38430147        6 
C      -1.15130478       0.55830251       2.26172494        6 
H       1.46846404       3.21162201      -1.20253476        1 
H       3.49132454      -0.53023836      -0.45596756        1 
H      -1.45885611       1.85788427      -2.10561516        1 
H       2.55123408       1.89638974      -1.75619662        1 
H       2.68879030       2.55102289      -0.09018565        1 
H       3.84515151      -1.25804462       1.14311034        1 
H       3.40962958      -2.29421098      -0.25206564        1 
H      -2.60632954       1.66971466       0.28121554        1 
H      -1.67885476      -2.30538961      -1.09451555        1 
H      -1.98904104      -0.09165350       2.51061327        1 
H      -0.30724237       0.28794069       2.89978654        1 
H      -1.42959570       1.58398957       2.50086580        1 
H      -0.36724722      -3.08654536       0.96884253        1 
H       0.04826205      -1.92517260       2.22727213        1 
H      -1.63952788      -2.15754003       1.75205552        1 
H      -3.64303956      -0.53068729      -0.82641843        1 
H      -3.05914707      -0.94070670       0.80198744        1 
H      -0.85923755      -0.59368421      -2.92573054        1 
