35
Lattice="0.0 0.0 0.0 0.0 0.0 0.0 0.0 0.0 0.0" Properties=species:S:1:pos:R:3:Z:I:1 pbc="F F F"
C       0.57893086      -0.76752756       0.38339157        6 
C      -0.97871862      -0.44744959       0.60862753        6 
C       1.55249066       0.41492304       0.42893789        6 
C      -1.53686576       0.97936530       0.40593115        6 
O       2.78431616       0.00637172       0.02213316        8 
O       1.32424565       1.55944614       0.71949656        8 
O      -0.91017869       1.70989436      -0.52157660        8 
O      -2.58708530       1.33250883       0.89818846        8 
C      -1.48747815       2.98846705      -0.82287344        6 
C       3.80410568       1.01879169      -0.00204288        6 
C       0.59738440      -1.63189948      -0.93668274        6 
C       0.11886986      -0.78222636      -2.09680638        6 
C      -1.19085339      -0.58058725      -1.93047731        6 
C      -1.60353538      -1.27373711      -0.64022488        6 
C      -0.66740320      -2.49647264      -0.70523113        6 
C       1.15074058      -1.65621111       1.54095594        6 
C      -1.56044679      -0.97405321       1.92745680        6 
H      -2.50399448       2.87303416      -1.20410733        1 
H       3.94853943       1.44358552       0.99266144        1 
H      -1.83429972       0.05561396      -2.52236170        1 
H      -0.83889963       3.42421276      -1.57991069        1 
H      -1.50802718       3.61543806       0.06925625        1 
H       4.70766535       0.51293864      -0.33619046        1 
H       3.53245702       1.81718837      -0.69469704        1 
H      -2.66977853      -1.45264239      -0.50693981        1 
H       1.54339661      -2.15067924      -1.07731458        1 
H      -1.42988494      -2.05025847       2.02908118        1 
H      -1.09494567      -0.48895722       2.78835789        1 
H      -2.62499805      -0.75181218       1.96521887        1 
H       2.17331766      -1.94203592       1.29613416        1 
H       1.17068202      -1.11047419       2.48682803        1 
H       0.57657053      -2.56588228       1.69562343        1 
H      -0.88596514      -3.13504041      -1.56245810        1 
H      -0.65460184      -3.10456443       0.19790748        1 
H       0.76103053      -0.34453683      -2.84924467        1 
