35
Lattice="0.0 0.0 0.0 0.0 0.0 0.0 0.0 0.0 0.0" Properties=species:S:1:pos:R:3:Z:I:1 pbc="F F F"
C      -0.90288332      -0.69338743      -0.29593497        6 
C       0.59478819      -0.31525747      -0.70822820        6 
C      -1.79728212       0.39019498       0.30502472        6 
C       1.20976631       0.89545759       0.02766065        6 
O      -1.75155719       1.52612048      -0.41150172        8 
O      -2.66386659       0.16384465       1.11871203        8 
O       2.56598191       0.83175149      -0.07740193        8 
O       0.66416321       1.83064820       0.55118971        8 
C       3.29111078       1.91531111       0.52484975        6 
C      -2.63981584       2.57497750       0.00079475        6 
C      -0.72399178      -1.95356245       0.61358490        6 
C       0.10293429      -1.56280870       1.82824963        6 
C       1.36126504      -1.37658021       1.41461000        6 
C       1.37704621      -1.58755910      -0.09920730        6 
C       0.34346106      -2.72048622      -0.20448741        6 
C      -1.77265638      -1.10412546      -1.53423214        6 
C       0.84176121      -0.13212643      -2.21151041        6 
H       2.99623394       2.86876760       0.08380677        1 
H      -2.40445086       2.88746154       1.01928029        1 
H       2.19894574      -1.01632448       1.99602821        1 
H       4.34067716       1.70847453       0.32581417        1 
H       3.10480462       1.94882678       1.59999009        1 
H      -2.46375169       3.39294058      -0.69444594        1 
H      -3.67866550       2.24308841      -0.04652595        1 
H       2.35169886      -1.73909463      -0.55770257        1 
H      -1.66755229      -2.45381018       0.82071967        1 
H       0.57267120      -1.03244585      -2.76431765        1 
H       0.25752069       0.70154309      -2.60740161        1 
H       1.89833506       0.07042562      -2.39013116        1 
H      -2.75478232      -1.42513060      -1.17951642        1 
H      -1.91770614      -0.26595102      -2.21505901        1 
H      -1.33931053      -1.92904925      -2.09609620        1 
H       0.67885844      -3.62660567       0.30185284        1 
H       0.04992075      -2.97216315      -1.22266980        1 
H      -0.30409695      -1.38800496       2.81457740        1 
