35
Lattice="0.0 0.0 0.0 0.0 0.0 0.0 0.0 0.0 0.0" Properties=species:S:1:pos:R:3:Z:I:1 pbc="F F F"
C       0.09550384      -0.84594141       0.57991135        6 
C      -1.04825035       0.29164201       0.52258086        6 
C       1.40007995      -0.46196039      -0.12569169        6 
C      -0.65454841       1.57047624      -0.23433189        6 
O       2.47316191      -1.08110312       0.42261089        8 
O       1.49902031       0.22640476      -1.11086637        8 
O       0.07621777       2.38842543       0.56208846        8 
O      -0.88330987       1.82809687      -1.38672505        8 
C       0.63811322       3.54059230      -0.09092148        6 
C       3.72573955      -0.87156147      -0.25254860        6 
C      -0.59368472      -2.04758458      -0.21093552        6 
C      -0.76724188      -1.65316107      -1.66434666        6 
C      -1.71716612      -0.71585260      -1.71203183        6 
C      -2.19005349      -0.46970737      -0.28697914        6 
C      -2.05186804      -1.90002255       0.27769127        6 
C       0.40846877      -1.29774037       2.02225493        6 
C      -1.59437175       0.72203920       1.89950838        6 
H       1.29415104       3.22249191      -0.90268031        1 
H       3.98884434       0.18725672      -0.25207344        1 
H      -2.02956516      -0.14335078      -2.57090680        1 
H       1.19885391       4.06744847       0.67851063        1 
H      -0.15130249       4.17671838      -0.49409978        1 
H       4.45692805      -1.44841194       0.30976264        1 
H       3.66674228      -1.22295583      -1.28396045        1 
H      -3.15968964       0.01795262      -0.18590321        1 
H      -0.08981421      -2.99472385      -0.01781680        1 
H      -2.06026276      -0.10809640       2.42869187        1 
H      -0.81652764       1.14828134       2.53082744        1 
H      -2.35883706       1.48982416       1.75455352        1 
H       1.08946689      -2.14744084       2.00573589        1 
H       0.88651554      -0.50381117       2.59882143        1 
H      -0.49207642      -1.60313458       2.55117750        1 
H      -2.71923266      -2.60483136      -0.21960714        1 
H      -2.18208750      -1.98388222       1.35683335        1 
H      -0.14106307      -1.99282378      -2.47775536        1 
