35
Lattice="0.0 0.0 0.0 0.0 0.0 0.0 0.0 0.0 0.0" Properties=species:S:1:pos:R:3:Z:I:1 pbc="F F F"
C       0.61456148      -0.66654392      -0.71627950        6 
C       0.73664863       0.89554405      -0.33551645        6 
C      -0.75243545      -1.35169716      -0.52229583        6 
C      -0.51358595       1.65368294       0.11703661        6 
O      -1.15972503      -1.43763144       0.75839624        8 
O      -1.35991750      -1.88929426      -1.41917710        8 
O      -1.66710197       1.02806129      -0.17566567        8 
O      -0.48140640       2.80127309       0.49783264        8 
C      -2.88059193       1.76635188       0.05264463        6 
C      -2.42321032      -2.08391711       0.96821450        6 
C       1.69045312      -1.27923570       0.30397615        6 
C       1.23301935      -1.06302092       1.74193683        6 
C       1.33629918       0.24117130       2.01150028        6 
C       1.87105432       0.91460730       0.76192395        6 
C       2.79695449      -0.20207531       0.23400758        6 
C       1.03889461      -0.99863182      -2.15971511        6 
C       1.19294344       1.76105871      -1.54783134        6 
H      -2.99832195       1.98465254       1.11503082        1 
H      -2.39879662      -3.11215601       0.60352773        1 
H       1.00766850       0.76086461       2.90142680        1 
H      -3.68106997       1.11839535      -0.29789092        1 
H      -2.86862921       2.70191768      -0.50789992        1 
H      -2.58623869      -2.06146060       2.04394647        1 
H      -3.21777613      -1.54382685       0.44967160        1 
H       2.29543475       1.90852257       0.89070636        1 
H       1.96536216      -2.30029533       0.03786257        1 
H       2.14049359       1.41781524      -1.95839450        1 
H       0.45215945       1.75012356      -2.35085682        1 
H       1.31624416       2.79156438      -1.21557070        1 
H       1.01772372      -2.07959022      -2.30168490        1 
H       0.35322449      -0.56749097      -2.88884432        1 
H       2.04530662      -0.64947556      -2.37684925        1 
H       3.61773289      -0.41322649       0.92039922        1 
H       3.20061209      -0.02689313      -0.76238194        1 
H       0.81229094      -1.83131335       2.37314041        1 
