35
Lattice="0.0 0.0 0.0 0.0 0.0 0.0 0.0 0.0 0.0" Properties=species:S:1:pos:R:3:Z:I:1 pbc="F F F"
C       0.95601813       0.66718764      -0.44459845        6 
C      -0.65769291       0.68008886      -0.59942773        6 
C       1.56225436      -0.74205982      -0.38349474        6 
C      -1.33362987      -0.68774823      -0.45167187        6 
O       1.80543000      -1.17326190       0.87311381        8 
O       1.78837830      -1.41952194      -1.35356406        8 
O      -2.41352209      -0.63708202       0.36320374        8 
O      -1.05884192      -1.67242131      -1.09050259        8 
C      -3.19579777      -1.84200508       0.44114989        6 
C       2.28302974      -2.52718050       0.98194303        6 
C       1.16076284       1.57020259       0.83128645        6 
C       0.52566115       0.91506097       2.04947996        6 
C      -0.79849110       0.98660420       1.89976640        6 
C      -1.06928647       1.67527223       0.56797589        6 
C       0.10748666       2.67011898       0.55539558        6 
C       1.68060302       1.31680567      -1.65004866        6 
C      -1.15633280       1.19044612      -1.96791370        6 
H      -3.57056130      -2.11949649      -0.54553534        1 
H       3.24583070      -2.63659896       0.48027776        1 
H      -1.55938867       0.55566041       2.53339006        1 
H      -4.01883492      -1.60978490       1.11371107        1 
H      -2.59550514      -2.66248818       0.83716858        1 
H       2.38348647      -2.71374615       2.04928229        1 
H       1.56534083      -3.21536287       0.53319947        1 
H      -2.07160969       2.07888446       0.43406532        1 
H       2.19746761       1.88577914       0.94777384        1 
H      -0.83028425       2.21323245      -2.15375561        1 
H      -0.80244614       0.55375299      -2.77959365        1 
H      -2.24978425       1.18321729      -1.98201519        1 
H       2.75637105       1.32913206      -1.45540027        1 
H       1.52146168       0.73813187      -2.55816897        1 
H       1.36551019       2.34358571      -1.82388501        1 
H       0.04095164       3.39268363       1.36975436        1 
H       0.23749925       3.20632923      -0.38480021        1 
H       1.07412049       0.41307025       2.83223504        1 
