35
Lattice="0.0 0.0 0.0 0.0 0.0 0.0 0.0 0.0 0.0" Properties=species:S:1:pos:R:3:Z:I:1 pbc="F F F"
C       0.94522147       0.53899480      -0.58508480        6 
C      -0.64432028       0.70995072      -0.36693821        6 
C       1.61706427      -0.84344333      -0.42503033        6 
C      -1.49496371      -0.56625228      -0.34188825        6 
O       1.20962726      -1.55300619       0.63220040        8 
O       2.57138970      -1.18167715      -1.09239464        8 
O      -2.80404905      -0.23395014      -0.16622899        8 
O      -1.14111455      -1.71526071      -0.37918215        8 
C      -3.72670949      -1.33299753      -0.08706057        6 
C       1.81671803      -2.84050348       0.81047392        6 
C       1.48182320       1.42651516       0.65513467        6 
C       1.12842936       0.73082955       1.96154683        6 
C      -0.19490871       0.81775814       2.12186426        6 
C      -0.74347696       1.59220866       0.93879600        6 
C       0.43688837       2.56247697       0.69119153        6 
C       1.47051601       1.12455719      -1.90517421        6 
C      -1.28866913       1.51746108      -1.54388705        6 
H      -3.70058255      -1.92269464      -1.00496856        1 
H       2.89963544      -2.75115312       0.90911630        1 
H      -0.79807373       0.33793201       2.88096831        1 
H      -4.70647491      -0.87888357       0.04682080        1 
H      -3.48496218      -1.97963446       0.75823422        1 
H       1.37583923      -3.24193638       1.72067133        1 
H       1.58283459      -3.48542244      -0.03830046        1 
H      -1.73474397       2.02476594       1.06235685        1 
H       2.52734258       1.70340613       0.52326623        1 
H      -0.78515624       2.46238132      -1.72539040        1 
H      -1.26602630       0.94594817      -2.47484307        1 
H      -2.32999294       1.72761439      -1.30705647        1 
H       2.55035472       0.99719288      -1.95188090        1 
H       1.04946720       0.60407295      -2.76780883        1 
H       1.24882321       2.18533800      -2.00024805        1 
H       0.59376757       3.23513052       1.53485513        1 
H       0.36872118       3.14735285      -0.22510274        1 
H       1.82404619       0.17025357       2.56933019        1 
