35
Lattice="0.0 0.0 0.0 0.0 0.0 0.0 0.0 0.0 0.0" Properties=species:S:1:pos:R:3:Z:I:1 pbc="F F F"
C       1.03230230       0.56677418      -0.48931897        6 
C      -0.56633263       0.75050125      -0.49703343        6 
C       1.54265328      -0.88410283      -0.37851977        6 
C      -1.36507405      -0.54381645      -0.38770258        6 
O       1.31403864      -1.45954144       0.81560691        8 
O       2.18486038      -1.42928667      -1.24488159        8 
O      -2.63607252      -0.28191073      -0.00305360        8 
O      -0.97685985      -1.66051963      -0.62483224        8 
C      -3.51830964      -1.41503176       0.08432347        6 
C       1.64306034      -2.85466925       0.90888602        6 
C       1.40892547       1.43674907       0.79750695        6 
C       0.80993404       0.80660751       2.04935233        6 
C      -0.51313719       0.98287390       1.99975152        6 
C      -0.81869377       1.73281204       0.71529489        6 
C       0.43545605       2.62518298       0.62636239        6 
C       1.73592509       1.15427663      -1.72639675        6 
C      -1.09878893       1.39209282      -1.80866497        6 
H      -3.60558808      -1.90795025      -0.88529869        1 
H       2.69943067      -3.02048376       0.69418989        1 
H      -1.25917466       0.57855477       2.67054769        1 
H      -4.47908155      -1.01044763       0.39554496        1 
H      -3.14743407      -2.13222120       0.81828132        1 
H       1.40786268      -3.13990886       1.93269039        1 
H       1.03253902      -3.42116439       0.20402678        1 
H      -1.79047890       2.21966411       0.65784946        1 
H       2.47491853       1.66049300       0.83847072        1 
H      -0.66034995       2.37348378      -1.98230826        1 
H      -0.88496499       0.76544158      -2.67706054        1 
H      -2.18026323       1.51569663      -1.73428440        1 
H       2.81590509       1.05636246      -1.60642997        1 
H       1.46830442       0.61058516      -2.63161027        1 
H       1.50818037       2.20876038      -1.86871586        1 
H       0.49621879       3.33145721       1.45538071        1 
H       0.53855535       3.16892927      -0.31269380        1 
H       1.36785475       0.23479650       2.77542866        1 
