35
Lattice="0.0 0.0 0.0 0.0 0.0 0.0 0.0 0.0 0.0" Properties=species:S:1:pos:R:3:Z:I:1 pbc="F F F"
C      -0.28712335      -0.93563025       0.46612996        6 
C      -0.85078543       0.56693587       0.61864157        6 
C       1.03963725      -1.06135416      -0.30526180        6 
C      -0.00079864       1.71642544       0.07794919        6 
O       2.05458281      -1.46219387       0.49189088        8 
O       1.19590715      -0.85719308      -1.48406052        8 
O       1.31913659       1.46319410       0.09652881        8 
O      -0.45344456       2.80812938      -0.17583529        8 
C       2.17802408       2.51394192      -0.38072740        6 
C       3.33682653      -1.57523769      -0.14397638        6 
C      -1.45030264      -1.57777921      -0.42580103        6 
C      -1.47883060      -0.89627419      -1.78725203        6 
C      -1.95685998       0.33891888      -1.61347019        6 
C      -2.24039306       0.50473062      -0.13260979        6 
C      -2.69927952      -0.92731922       0.21180793        6 
C      -0.18578847      -1.70516266       1.79590452        6 
C      -1.07692762       0.98338176       2.09673691        6 
H       1.92072494       2.76903575      -1.40920323        1 
H       3.64238072      -0.61160136      -0.55461822        1 
H      -2.02195155       1.13163108      -2.34571858        1 
H       3.18620330       2.10886703      -0.32958189        1 
H       2.08473679       3.39981035       0.24880432        1 
H       4.02235049      -1.89419819       0.63854513        1 
H       3.30435716      -2.31009751      -0.95002494        1 
H      -2.89428185       1.32942596       0.14383087        1 
H      -1.40006712      -2.66717775      -0.43920821        1 
H      -1.77744253       0.31781545       2.59916999        1 
H      -0.14357590       0.98750633       2.66400137        1 
H      -1.49333454       1.99175638       2.11882346        1 
H       0.14252995      -2.72815940       1.60446463        1 
H       0.53702757      -1.25462282       2.47467060        1 
H      -1.14778881      -1.75572864       2.30197541        1 
H      -3.61541420      -1.19887304      -0.31375171        1 
H      -2.82705468      -1.12352557       1.27702851        1 
H      -1.08416936      -1.32391843      -2.69631725        1 
