35
Lattice="0.0 0.0 0.0 0.0 0.0 0.0 0.0 0.0 0.0" Properties=species:S:1:pos:R:3:Z:I:1 pbc="F F F"
C       0.05107404      -1.05329206       0.27209601        6 
C      -0.91889261       0.15094365       0.79503673        6 
C       1.40822438      -0.63370589      -0.32730109        6 
C      -0.38026421       1.59716930       0.74980151        6 
O       2.44530529      -1.27858376       0.26692056        8 
O       1.59156963       0.15861105      -1.21572997        8 
O      -0.08978845       2.03704758      -0.47654031        8 
O      -0.34365802       2.32257258       1.72069643        8 
C       0.38999614       3.38472307      -0.58737037        6 
C       3.75074725      -0.96592069      -0.24610398        6 
C      -0.84345582      -1.68024380      -0.89714628        6 
C      -0.97046717      -0.68407578      -2.03554400        6 
C      -1.76629668       0.30256166      -1.61642334        6 
C      -2.17337136      -0.01495583      -0.18968940        6 
C      -2.25673027      -1.55385154      -0.28938900        6 
C       0.28091983      -2.13622936       1.34702645        6 
C      -1.39680882      -0.05669156       2.24646576        6 
H      -0.37378435       4.09312886      -0.26109586        1 
H       3.97061545       0.09481612      -0.11478461        1 
H      -1.99902441       1.21966495      -2.13689005        1 
H       0.61800348       3.51880686      -1.64262538        1 
H       1.28773972       3.52102800       0.01719774        1 
H       4.44187513      -1.57438486       0.33360774        1 
H       3.81572352      -1.21380970      -1.30679083        1 
H      -3.04902593       0.51133090       0.19064707        1 
H      -0.50321606      -2.68043895      -1.16824867        1 
H      -1.90750930      -1.00777320       2.37785848        1 
H      -0.57074496      -0.00428105       2.95560451        1 
H      -2.09276385       0.73967046       2.51054605        1 
H       0.87598498      -2.94856060       0.93038528        1 
H       0.82101521      -1.74947597       2.21112368        1 
H      -0.65866041      -2.56020742       1.69307700        1 
H      -3.02858202      -1.87621019      -0.98918474        1 
H      -2.40035812      -2.06958803       0.65917948        1 
H      -0.41762115      -0.72979593      -2.96241609        1 
