35
Lattice="0.0 0.0 0.0 0.0 0.0 0.0 0.0 0.0 0.0" Properties=species:S:1:pos:R:3:Z:I:1 pbc="F F F"
C       0.26340212       1.11326046       0.17235779        6 
C       0.78917513      -0.26396735       0.86397493        6 
C      -1.09042209       0.90385892      -0.51959363        6 
C      -0.23831920      -1.40178527       0.74517079        6 
O      -2.10013980       1.51329139       0.14077797        8 
O      -1.28700518       0.23897220      -1.50861801        8 
O      -0.11536169      -2.14497262      -0.36097600        8 
O      -1.04207780      -1.65969298       1.61414615        8 
C      -1.10120394      -3.17166157      -0.55854387        6 
C      -3.42203361       1.27438774      -0.37356751        6 
C       1.42232600       1.40047346      -0.87440945        6 
C       1.43685943       0.33479176      -1.95452507        6 
C       1.88036770      -0.79285392      -1.39731491        6 
C       2.15064832      -0.50507572       0.06980305        6 
C       2.65623625       0.95082966      -0.05915070        6 
C       0.16182886       2.29425571       1.15564958        6 
C       1.07942506      -0.12747712       2.36972506        6 
H      -1.08062439      -3.89089186       0.26173821        1 
H      -3.65931669       0.21036559      -0.32380622        1 
H       1.93547007      -1.76940396      -1.85331637        1 
H      -0.83369606      -3.64913058      -1.49872780        1 
H      -2.09432384      -2.72611726      -0.62862991        1 
H      -4.08929518       1.84385736       0.26969610        1 
H      -3.49998141       1.61237902      -1.40786548        1 
H       2.79655783      -1.21541269       0.58660494        1 
H       1.40249460       2.43402425      -1.22230423        1 
H       1.84348521       0.62162051       2.56753864        1 
H       0.18039087       0.12698358       2.92856280        1 
H       1.44104358      -1.08464481       2.75327170        1 
H      -0.18234073       3.18317691       0.62311602        1 
H      -0.54875330       2.09936343       1.95671922        1 
H       1.12884772       2.52694937       1.59817792        1 
H       3.57395078       1.01287621      -0.64447260        1 
H       2.79963227       1.47269265       0.88698265        1 
H       1.04905827       0.46358360      -2.95409516        1 
