35
Lattice="0.0 0.0 0.0 0.0 0.0 0.0 0.0 0.0 0.0" Properties=species:S:1:pos:R:3:Z:I:1 pbc="F F F"
C       0.78548487      -0.45978086      -0.76034403        6 
C       0.45576408       1.03906511      -0.27468408        6 
C      -0.24855750      -1.55794643      -0.49027431        6 
C      -0.93866506       1.25102055       0.31414023        6 
O      -1.09494873      -1.28327050       0.51375360        8 
O      -0.26006508      -2.61636758      -1.07631360        8 
O      -1.87769751       1.18612912      -0.66021574        8 
O      -1.20559521       1.47597393       1.46731640        8 
C      -3.24295297       1.29548879      -0.23013417        6 
C      -2.02832130      -2.31591002       0.87317838        6 
C       2.06621256      -0.80650250       0.13254835        6 
C       1.62317815      -0.90541754       1.58293730        6 
C       1.31960668       0.32869302       1.99365284        6 
C       1.56888518       1.27182186       0.82653859        6 
C       2.77447875       0.56253621       0.16744567        6 
C       1.14331006      -0.55846073      -2.25471927        6 
C       0.60216358       2.10602012      -1.38686108        6 
H      -3.48456559       0.49267602       0.46880726        1 
H      -1.49852301      -3.22433686       1.16315587        1 
H       0.86809533       0.62112392       2.92929788        1 
H      -3.84195448       1.20734960      -1.13435415        1 
H      -3.42070992       2.25647818       0.25507693        1 
H      -2.59030576      -1.91400624       1.71328915        1 
H      -2.68929898      -2.54053909       0.03434498        1 
H       1.68212196       2.32471577       1.08285662        1 
H       2.61323516      -1.65773183      -0.27096385        1 
H       1.62263842       2.16504228      -1.76163758        1 
H      -0.06660294       1.91218763      -2.22342339        1 
H       0.34559879       3.08679885      -0.97645058        1 
H       1.42949573      -1.58258150      -2.49078389        1 
H       0.28932209      -0.30054493      -2.88501593        1 
H       1.97098935       0.09921256      -2.51633450        1 
H       3.65248861       0.55172512       0.81401813        1 
H       3.05398268       0.95007878      -0.81249470        1 
H       1.46814827      -1.83329698       2.11771813        1 
