35
Lattice="0.0 0.0 0.0 0.0 0.0 0.0 0.0 0.0 0.0" Properties=species:S:1:pos:R:3:Z:I:1 pbc="F F F"
C       0.82282508       0.32762886      -0.78524031        6 
C      -0.59750209       0.93150952      -0.29958404        6 
C       0.87494728      -1.18745521      -0.58285047        6 
C      -1.45746146      -0.14963941       0.36731285        6 
O       1.76418410      -1.59657482       0.33222504        8 
O       0.23658861      -1.95579190      -1.26758778        8 
O      -2.67964804      -0.26148888      -0.18870842        8 
O      -1.11116512      -0.83200013       1.30346918        8 
C      -3.52423383      -1.29536177       0.34811679        6 
C       1.80010450      -3.01501960       0.57821945        6 
C       1.84545173       1.17531060       0.08226129        6 
C       1.68866563       0.83469361       1.55613229        6 
C       0.51530050       1.32565746       1.95995868        6 
C      -0.12490636       2.01527197       0.76631882        6 
C       1.14569412       2.55375105       0.06920042        6 
C       1.11525457       0.52743953      -2.28720062        6 
C      -1.38925808       1.62223236      -1.42406258        6 
H      -3.06083772      -2.27186986       0.20062065        1 
H       2.05665579      -3.55638050      -0.33358528        1 
H       0.03444486       1.17026403       2.91496786        1 
H      -4.45571074      -1.22426001      -0.20948385        1 
H      -3.69824973      -1.13474741       1.41298614        1 
H       2.56377692      -3.15711313       1.33963233        1 
H       0.82766140      -3.35058624       0.94029210        1 
H      -0.91666392       2.73159133       0.98724441        1 
H       2.85946644       1.12520604      -0.31449033        1 
H      -0.80937987       2.41491952      -1.89342463        1 
H      -1.69404271       0.91714411      -2.19700499        1 
H      -2.29682956       2.07049442      -1.01685808        1 
H       2.09292107       0.09649623      -2.52025494        1 
H       0.37536671       0.02182489      -2.90648972        1 
H       1.14447158       1.58137500      -2.55909765        1 
H       1.66964948       3.28599139       0.68415818        1 
H       0.98022742       2.97416474      -0.92301149        1 
H       2.36183887       0.20317124       2.11552282        1 
