35
Lattice="0.0 0.0 0.0 0.0 0.0 0.0 0.0 0.0 0.0" Properties=species:S:1:pos:R:3:Z:I:1 pbc="F F F"
C       1.14776028      -0.25921527      -0.48584398        6 
C       0.17058508       1.02261287      -0.53246035        6 
C       0.53341465      -1.63707755      -0.22308098        6 
C      -1.32474613       0.69318495      -0.60898190        6 
O      -0.74481165      -1.61576804       0.18378536        8 
O       1.16612065      -2.66385435      -0.31828194        8 
O      -1.99651445       0.95148307       0.53042790        8 
O      -1.88375051       0.37775246      -1.63328921        8 
C      -3.41022687       0.70109214       0.49296894        6 
C      -1.35169918      -2.88942546       0.46410660        6 
C       2.05359480       0.06978225       0.79038304        6 
C       1.17569758      -0.07129737       2.02245613        6 
C       0.31211855       0.94666040       2.00798493        6 
C       0.61165992       1.79391240       0.77814621        6 
C       2.14571783       1.60476054       0.70562866        6 
C       2.02839369      -0.41105277      -1.73959372        6 
C       0.39744841       1.93289488      -1.76366226        6 
H      -3.89573218       1.33800884      -0.24825514        1 
H      -0.83572322      -3.38280502       1.28904987        1 
H      -0.52082687       1.11003002       2.67489344        1 
H      -3.77310210       0.93116192       1.49279851        1 
H      -3.60466245      -0.34323296       0.24410176        1 
H      -2.38115363      -2.66561370       0.73476077        1 
H      -1.31630649      -3.52863055      -0.41855273        1 
H       0.23325402       2.81529742       0.80522653        1 
H       2.97740978      -0.50627735       0.78040513        1 
H       1.42056320       2.29671062      -1.82872342        1 
H       0.14503906       1.41382292      -2.68659237        1 
H      -0.25950125       2.80373333      -1.68765840        1 
H       2.66349096      -1.28881277      -1.62619446        1 
H       1.42027912      -0.54738533      -2.63680598        1 
H       2.66664850       0.45929021      -1.88783171        1 
H       2.65762484       2.03141110       1.56909731        1 
H       2.60990027       1.97705305      -0.20731024        1 
H       1.18810934      -0.91731235       2.69710873        1 
