35
Lattice="0.0 0.0 0.0 0.0 0.0 0.0 0.0 0.0 0.0" Properties=species:S:1:pos:R:3:Z:I:1 pbc="F F F"
C       0.86141642      -0.78601357      -0.38886035        6 
C       0.54612656       0.77385011      -0.68395463        6 
C      -0.28242333      -1.73580463      -0.01198010        6 
C      -0.91271524       1.25903386      -0.54844157        6 
O      -1.50845056      -1.19201064      -0.03899285        8 
O      -0.10879852      -2.92117493       0.15877035        8 
O      -1.35111713       1.37451538       0.71879531        8 
O      -1.56597990       1.66220383      -1.48338182        8 
C      -2.69894169       1.83765108       0.87639335        6 
C      -2.61415271      -2.08714884       0.18087842        6 
C       1.93076597      -0.71673727       0.77456414        6 
C       1.24300913      -0.20150288       2.02549514        6 
C       0.97691221       1.09161215       1.82433042        6 
C       1.47414541       1.45659027       0.43014299        6 
C       2.72005674       0.54378856       0.36713204        6 
C       1.49554424      -1.49679448      -1.61788687        6 
C       0.99630572       1.24571738      -2.07969965        6 
H      -2.81661461       2.84116402       0.46422903        1 
H      -2.55319346      -2.52962294       1.17582724        1 
H       0.42880619       1.75570094       2.47484306        1 
H      -2.88131828       1.83882795       1.94936478        1 
H      -3.39372992       1.16427125       0.37120871        1 
H      -3.50543692      -1.47084216       0.08724759        1 
H      -2.61524645      -2.88101274      -0.56723014        1 
H       1.62075480       2.52000825       0.23943508        1 
H       2.47844746      -1.65226968       0.87421240        1 
H       2.05427154       1.06305912      -2.25357994        1 
H       0.42156707       0.76456436      -2.87007256        1 
H       0.82266534       2.31909934      -2.16858317        1 
H       1.73729960      -2.52348535      -1.34654554        1 
H       0.80618189      -1.52573228      -2.46507912        1 
H       2.40811810      -1.00210454      -1.94099584        1 
H       3.46576307       0.81630662       1.11476798        1 
H       3.19834691       0.48810099      -0.61055354        1 
H       0.94737402      -0.81551704       2.86585180        1 
