35
Lattice="0.0 0.0 0.0 0.0 0.0 0.0 0.0 0.0 0.0" Properties=species:S:1:pos:R:3:Z:I:1 pbc="F F F"
C       0.73180495      -0.55367619      -0.76919081        6 
C       0.59337650       0.98244789      -0.28420309        6 
C      -0.53238575      -1.40149932      -0.58716793        6 
C      -0.74351493       1.30958898       0.38100283        6 
O      -1.02006306      -1.37830740       0.66768514        8 
O      -1.05739166      -2.03933659      -1.46966299        8 
O      -1.74384804       1.27719203      -0.53230792        8 
O      -0.93235104       1.55623966       1.54479626        8 
C      -3.07004040       1.50634330      -0.02770259        6 
C      -2.22385730      -2.13067593       0.89294547        6 
C       1.94713607      -1.05437147       0.13050619        6 
C       1.55624076      -1.03802017       1.59875349        6 
C       1.45988011       0.23852573       1.97694078        6 
C       1.78020855       1.09622238       0.76236197        6 
C       2.84572504       0.20358085       0.09241924        6 
C       1.11128844      -0.69064010      -2.25699118        6 
C       0.78296667       2.01909110      -1.41226410        6 
H      -3.30637329       0.78750263       0.75831065        1 
H      -2.04405578      -3.19617014       0.73990737        1 
H       1.10372975       0.61863119       2.92182948        1 
H      -3.73234339       1.37577403      -0.88084818        1 
H      -3.15813598       2.51656745       0.37550928        1 
H      -2.49819314      -1.93135664       1.92652154        1 
H      -3.01073194      -1.80393497       0.21111969        1 
H       2.04784241       2.13250734       0.96674740        1 
H       2.36912333      -1.98596534      -0.24761906        1 
H       1.78570672       1.97186977      -1.83568042        1 
H       0.05799913       1.88237977      -2.21302378        1 
H       0.64535301       3.02470513      -1.00470592        1 
H       1.25399733      -1.74455832      -2.49891274        1 
H       0.32128048      -0.31816349      -2.90910211        1 
H       2.03310025      -0.16266202      -2.49185576        1 
H       3.73513645       0.08934920       0.71286595        1 
H       3.14648714       0.52027997      -0.90643640        1 
H       1.29616715      -1.91434242       2.17572440        1 
