35
Lattice="0.0 0.0 0.0 0.0 0.0 0.0 0.0 0.0 0.0" Properties=species:S:1:pos:R:3:Z:I:1 pbc="F F F"
C       0.75170662      -0.54387329      -0.70903378        6 
C       0.38157634       0.99239224      -0.38374326        6 
C      -0.09302232      -1.67339801      -0.09772843        6 
C      -0.97581638       1.26363033       0.26616203        6 
O      -1.37070066      -1.36288083       0.16626414        8 
O       0.35999289      -2.77693700       0.10282487        8 
O      -1.98769842       1.12094290      -0.61626335        8 
O      -1.13786275       1.71744455       1.37387216        8 
C      -3.30549495       1.37054565      -0.11088996        6 
C      -2.18047869      -2.41633369       0.72146940        6 
C       2.17354238      -0.66964103       0.00197625        6 
C       1.89423460      -0.65893352       1.50127483        6 
C       1.51309001       0.58039927       1.82555422        6 
C       1.56426151       1.42015265       0.55756406        6 
C       2.75318194       0.74298734      -0.16629184        6 
C       0.83290782      -0.86990033      -2.21292524        6 
C       0.38543116       1.90066442      -1.64580799        6 
H      -3.52420086       0.70649264       0.72753601        1 
H      -1.77463313      -2.74296179       1.67955611        1 
H       1.13482323       0.93203523       2.77408172        1 
H      -3.97955613       1.17083549      -0.94161638        1 
H      -3.40379743       2.40559186       0.22141287        1 
H      -3.16904550      -1.98146967       0.85108235        1 
H      -2.22000919      -3.26553529       0.03807754        1 
H       1.60836601       2.49854251       0.70343610        1 
H       2.74985720      -1.51051788      -0.37707631        1 
H       1.36085734       1.92410647      -2.12706999        1 
H      -0.35660715       1.58351777      -2.37598572        1 
H       0.14199775       2.92466562      -1.34866223        1 
H       1.14057614      -1.90958424      -2.33982157        1 
H      -0.13444182      -0.73465514      -2.70227203        1 
H       1.56271998      -0.23832282      -2.72015547        1 
H       3.69154334       0.86787949       0.37605995        1 
H       2.89967279       1.04984418      -1.20215127        1 
H       1.89206729      -1.53842612       2.12976065        1 
