35
Lattice="0.0 0.0 0.0 0.0 0.0 0.0 0.0 0.0 0.0" Properties=species:S:1:pos:R:3:Z:I:1 pbc="F F F"
C       0.82402160       0.57965873      -0.51865615        6 
C      -0.76915250       0.51426686      -0.58218992        6 
C       1.52122226      -0.77498185      -0.45082799        6 
C      -1.39083428      -0.74754535       0.03193257        6 
O       2.57304229      -0.75613138       0.39708670        8 
O       1.20461915      -1.74352486      -1.09319634        8 
O      -2.74038148      -0.71842042      -0.13173264        8 
O      -0.83968899      -1.63841665       0.62274436        8 
C      -3.46545536      -1.82175434       0.43577521        6 
C       3.28324021      -2.00216160       0.52959171        6 
C       1.10020091       1.60573371       0.63778698        6 
C       0.54759193       1.04738652       1.93879503        6 
C      -0.78541241       1.10579759       1.86883405        6 
C      -1.14323854       1.66200326       0.49507304        6 
C       0.01156846       2.66071864       0.31848249        6 
C       1.45532660       1.13953600      -1.83514402        6 
C      -1.38291576       0.80500314      -1.95696568        6 
H      -3.13097882      -2.76395391      -0.00094821        1 
H       3.71159002      -2.30405478      -0.42762708        1 
H      -1.49652406       0.69834005       2.57549470        1 
H      -4.51015671      -1.63663432       0.19361877        1 
H      -3.32337257      -1.85995758       1.51728408        1 
H       4.06813089      -1.81307891       1.25881319        1 
H       2.60696856      -2.78249208       0.88162243        1 
H      -2.16167902       2.02340105       0.36421121        1 
H       2.13528469       1.94105205       0.66276230        1 
H      -1.04533338       1.76567040      -2.34659462        1 
H      -1.11258657       0.03002439      -2.67819405        1 
H      -2.46896283       0.83278479      -1.88417212        1 
H       2.54130877       1.17693034      -1.71536579        1 
H       1.23270988       0.49041095      -2.68197542        1 
H       1.11682870       2.14617088      -2.07115528        1 
H      -0.01937222       3.45839248       1.06213452        1 
H       0.07360451       3.10268298      -0.67561733        1 
H       1.14558092       0.58998617       2.71426036        1 
