35
Lattice="0.0 0.0 0.0 0.0 0.0 0.0 0.0 0.0 0.0" Properties=species:S:1:pos:R:3:Z:I:1 pbc="F F F"
C       0.71263122      -0.81516686       0.36189053        6 
C      -0.80138099      -0.41459310       0.74846614        6 
C       1.46311004       0.35611081      -0.28667034        6 
C      -1.06574230       1.07946629       0.54993483        6 
O       2.70329286       0.52713216       0.21151255        8 
O       1.03269197       1.03541797      -1.18893340        8 
O      -2.05714339       1.33689590      -0.31798302        8 
O      -0.50867972       1.93780528       1.19469088        8 
C      -2.33742248       2.72694379      -0.56282952        6 
C       3.46167275       1.60594691      -0.36554189        6 
C       0.46001979      -1.95542790      -0.72621565        6 
C      -0.18420538      -1.34723373      -1.95956995        6 
C      -1.43430869      -1.01205987      -1.63494992        6 
C      -1.64454787      -1.38584395      -0.17772449        6 
C      -0.77346298      -2.66043479      -0.11476524        6 
C       1.52007841      -1.38985913       1.53705903        6 
C      -1.16365465      -0.66044269       2.23021049        6 
H      -2.63040499       3.22787874       0.36091663        1 
H       2.94761731       2.55458546      -0.20550468        1 
H      -2.14415535      -0.46620347      -2.23768261        1 
H      -3.15500001       2.73437393      -1.28070548        1 
H      -1.45500077       3.21479720      -0.97831741        1 
H       4.41935262       1.59372760       0.15007657        1 
H       3.59729268       1.44686367      -1.43648310        1 
H      -2.68053863      -1.47238099       0.14831206        1 
H       1.35142344      -2.55995940      -0.89651257        1 
H      -1.06814512      -1.70994138       2.50648979        1 
H      -0.54021520      -0.06288193       2.89471210        1 
H      -2.20417008      -0.36776615       2.39618302        1 
H       2.50203287      -1.71356332       1.19042663        1 
H       1.67576608      -0.64436723       2.31707242        1 
H       1.02415437      -2.25154790       1.98304240        1 
H      -1.15299527      -3.45200816      -0.76191762        1 
H      -0.61941288      -3.05985444       0.88790053        1 
H       0.33272541      -1.12702918      -2.88271736        1 
