35
Lattice="0.0 0.0 0.0 0.0 0.0 0.0 0.0 0.0 0.0" Properties=species:S:1:pos:R:3:Z:I:1 pbc="F F F"
C       0.82769896       0.42694766      -0.46136400        6 
C      -0.77491326       0.45314279      -0.56083645        6 
C       1.51296134      -0.92708780      -0.23082932        6 
C      -1.55541984      -0.67116184       0.14762540        6 
O       2.85291804      -0.73002341      -0.06411523        8 
O       1.01955126      -2.01670572      -0.13367452        8 
O      -2.83691872      -0.71823152      -0.31802339        8 
O      -1.18428527      -1.38829412       1.03550949        8 
C      -3.69273800      -1.68034894       0.31879228        6 
C       3.62693334      -1.91591172       0.18244551        6 
C       1.15159677       1.55079319       0.59403653        6 
C       0.54899625       1.17423230       1.93499450        6 
C      -0.77624419       1.30541611       1.83122977        6 
C      -1.08122537       1.72932970       0.39952717        6 
C       0.13785419       2.63242328       0.14254990        6 
C       1.47876599       0.84459257      -1.82672764        6 
C      -1.33186181       0.69664537      -1.97146745        6 
H      -3.28941346      -2.68742503       0.20289767        1 
H       3.56300648      -2.59910022      -0.66660497        1 
H      -1.51871843       1.01920984       2.56349340        1 
H      -4.65327420      -1.59110972      -0.18524992        1 
H      -3.79648433      -1.46038280       1.38291192        1 
H       4.65014487      -1.57144587       0.31833152        1 
H       3.26993507      -2.42812123       1.07721367        1 
H      -2.07235109       2.14015995       0.21169578        1 
H       2.20624153       1.81721088       0.59749842        1 
H      -0.92715180       1.60590620      -2.41349079        1 
H      -1.10396480      -0.13794633      -2.63916675        1 
H      -2.41372333       0.79852551      -1.93146213        1 
H       2.55512446       0.93757048      -1.69128520        1 
H       1.30052366       0.08780850      -2.59410156        1 
H       1.10730117       1.79208981      -2.20653766        1 
H       0.14627762       3.49940203       0.80374011        1 
H       0.24492599       2.96764946      -0.88807601        1 
H       1.10263933       0.76794916       2.77050128        1 
