35
Lattice="0.0 0.0 0.0 0.0 0.0 0.0 0.0 0.0 0.0" Properties=species:S:1:pos:R:3:Z:I:1 pbc="F F F"
C       1.08919358       0.32076088      -0.32894280        6 
C      -0.45195175       0.57400448      -0.63668946        6 
C       1.51098647      -1.05516521       0.18706271        6 
C      -1.41952214      -0.30197150       0.17163632        6 
O       0.70798364      -2.03143339      -0.28469171        8 
O       2.60797842      -1.29003551       0.63944913        8 
O      -2.67960969      -0.20057398      -0.32508019        8 
O      -1.17504284      -0.94955147       1.15701331        8 
C      -3.69690798      -0.92158034       0.38930385        6 
C       1.13478873      -3.38209177      -0.05168619        6 
C       1.50504951       1.55005150       0.55229205        6 
C       0.71019970       1.53381050       1.84568879        6 
C      -0.55286352       1.85265735       1.54836765        6 
C      -0.63168625       2.04047983       0.03802109        6 
C       0.75036973       2.67416033      -0.20507181        6 
C       1.95733882       0.34672136      -1.63517926        6 
C      -0.83646575       0.59547456      -2.12066125        6 
H      -3.47317190      -1.98946970       0.39891233        1 
H       1.18832645      -3.58417141       1.01891307        1 
H      -1.40463220       1.83143270       2.21502664        1 
H      -4.62170340      -0.72986011      -0.15138512        1 
H      -3.77300094      -0.56463351       1.41777336        1 
H       0.37629871      -4.00878159      -0.51674742        1 
H       2.11249957      -3.56099236      -0.50300668        1 
H      -1.51087779       2.55710806      -0.34470837        1 
H       2.58472160       1.63953003       0.65349681        1 
H      -0.24280289       1.32160378      -2.67478865        1 
H      -0.69075673      -0.38536462      -2.57909352        1 
H      -1.88529149       0.86560067      -2.22819387        1 
H       3.00712563       0.25442461      -1.35546328        1 
H       1.70770485      -0.48791290      -2.29250235        1 
H       1.83766860       1.26645432      -2.20262207        1 
H       0.84749274       3.64005395       0.29238711        1 
H       1.01801298       2.78862078      -1.25480525        1 
H       1.09739974       1.20753971       2.80120752        1 
