35
Lattice="0.0 0.0 0.0 0.0 0.0 0.0 0.0 0.0 0.0" Properties=species:S:1:pos:R:3:Z:I:1 pbc="F F F"
C      -0.71996690       0.92621438       0.30610679        6 
C       0.67551687       0.23815117       0.75214286        6 
C      -1.68475640       0.00486203      -0.44541364        6 
C       0.88646094      -1.19507500       0.24578062        6 
O      -2.33673275      -0.82054807       0.39070722        8 
O      -1.93959523       0.08064775      -1.62501658        8 
O       2.15707068      -1.39194885      -0.17504125        8 
O       0.09814603      -2.10421320       0.33632806        8 
C       2.49010295      -2.73811748      -0.55895631        6 
C      -3.19541405      -1.79799556      -0.21664747        6 
C      -0.22255003       2.10803586      -0.60466424        6 
C       0.47911874       1.53651470      -1.82571708        6 
C       1.64649400       1.03176631      -1.41928873        6 
C       1.72679016       1.22974759       0.08941617        6 
C       1.00325502       2.58558634       0.20697713        6 
C      -1.52925543       1.49531071       1.49658808        6 
C       0.87345667       0.13181112       2.27633087        6 
H       2.34393610      -3.42288301       0.27785288        1 
H      -2.60127609      -2.48861268      -0.81703074        1 
H       2.36453500       0.47814712      -2.00623009        1 
H       3.53781918      -2.70464909      -0.85007694        1 
H       1.86898442      -3.05973938      -1.39635304        1 
H      -3.66441700      -2.32565455       0.61117365        1 
H      -3.94638174      -1.31652561      -0.84445646        1 
H       2.71784080       1.14380870       0.53094860        1 
H      -1.01166390       2.83214076      -0.80471772        1 
H       0.85939971       1.11336603       2.75029449        1 
H       0.10117372      -0.48917998       2.73290893        1 
H       1.84434487      -0.32430318       2.48746606        1 
H      -2.44772198       1.95314142       1.11900900        1 
H      -1.81275916       0.71390573       2.19827530        1 
H      -0.97777069       2.26425765       2.03542215        1 
H       1.54754873       3.38399015      -0.29930972        1 
H       0.78495870       2.89668727       1.22937375        1 
H       0.04104731       1.48096277      -2.81089768        1 
