35
Lattice="0.0 0.0 0.0 0.0 0.0 0.0 0.0 0.0 0.0" Properties=species:S:1:pos:R:3:Z:I:1 pbc="F F F"
C      -0.64331636       0.35909899       0.69550975        6 
C       0.88309404       0.74864707       0.39451195        6 
C      -1.11334064      -0.93418942       0.02762259        6 
C       1.71038208      -0.32578821      -0.31637697        6 
O      -2.44920372      -1.08380449       0.20231920        8 
O      -0.45662697      -1.73207296      -0.59247027        8 
O       2.03755935      -1.32720274       0.52756637        8 
O       2.10801432      -0.26142091      -1.45320992        8 
C       2.68415211      -2.46113559      -0.07308666        6 
C      -3.04020764      -2.24408921      -0.40846442        6 
C      -1.42801023       1.55856028      -0.00547291        6 
C      -1.26737126       1.35774517      -1.50542233        6 
C       0.00838826       1.61859071      -1.80580853        6 
C       0.71030789       2.02350844      -0.51807019        6 
C      -0.45718406       2.73311408       0.20829957        6 
C      -0.98323571       0.26568413       2.19427514        6 
C       1.69545933       1.13180217       1.65713178        6 
H       2.01821495      -2.91090777      -0.81102027        1 
H      -2.60880654      -3.15693917       0.00557652        1 
H       0.50592624       1.47221979      -2.75248359        1 
H       2.87545742      -3.15408830       0.74391927        1 
H       3.61788299      -2.16542903      -0.55342750        1 
H      -4.10161305      -2.18426683      -0.17718157        1 
H      -2.88034725      -2.23089850      -1.48783679        1 
H       1.64143838       2.57504288      -0.64027980        1 
H      -2.44598079       1.65764901       0.36718038        1 
H       1.27815461       2.00061566       2.16492254        1 
H       1.75653897       0.30790587       2.36644699        1 
H       2.71646747       1.38519659       1.35880914        1 
H      -2.04855603       0.07287021       2.31879163        1 
H      -0.43045839      -0.54470642       2.67533319        1 
H      -0.74060830       1.19377816       2.71091271        1 
H      -0.78356866       3.63276591      -0.31530667        1 
H      -0.26681960       2.97570050       1.25434142        1 
H      -2.02848100       0.95299979      -2.15984522        1 
