35
Lattice="0.0 0.0 0.0 0.0 0.0 0.0 0.0 0.0 0.0" Properties=species:S:1:pos:R:3:Z:I:1 pbc="F F F"
C       1.06793884       0.39740606      -0.40903303        6 
C      -0.49800377       0.57957934      -0.65170899        6 
C       1.49496074      -0.92370606       0.22011799        6 
C      -1.36572819      -0.41754298       0.11803096        6 
O       1.00817118      -1.96834894      -0.48801397        8 
O       2.33364801      -1.04023843       1.07962769        8 
O      -2.64942001      -0.37245243      -0.31232910        8 
O      -1.02440422      -1.11531537       1.04076954        8 
C      -3.58124045      -1.21164166       0.39152750        6 
C       1.34107544      -3.27747517      -0.00158968        6 
C       1.44169099       1.65022887       0.46196190        6 
C       0.72551156       1.54613578       1.79793509        6 
C      -0.57288945       1.77148619       1.57704160        6 
C      -0.74879114       1.99549686       0.08132229        6 
C       0.56960112       2.72717460      -0.22840275        6 
C       1.90941259       0.42429167      -1.71733031        6 
C      -0.91745703       0.64484317      -2.12665711        6 
H      -3.27567593      -2.25710739       0.33013946        1 
H       0.90461496      -3.42756343       0.98728135        1 
H      -1.38352080       1.66875020       2.28639011        1 
H      -4.53739863      -1.06215731      -0.10582066        1 
H      -3.64439924      -0.91901362       1.44090241        1 
H       0.90676114      -3.97314754      -0.71721689        1 
H       2.42294896      -3.40726811       0.05230043        1 
H      -1.68266353       2.45618317      -0.23856244        1 
H       2.51582285       1.81922554       0.50846660        1 
H      -0.36986670       1.42347885      -2.65733357        1 
H      -0.73192298      -0.30543131      -2.63248108        1 
H      -1.98068962       0.86637581      -2.20497144        1 
H       2.96140540       0.27341317      -1.46177897        1 
H       1.61365058      -0.36944096      -2.40240750        1 
H       1.83266207       1.37791007      -2.23830214        1 
H       0.63003545       3.69380578       0.27350291        1 
H       0.76620364       2.86459700      -1.29209734        1 
H       1.19192044       1.22299980       2.71742666        1 
