35
Lattice="0.0 0.0 0.0 0.0 0.0 0.0 0.0 0.0 0.0" Properties=species:S:1:pos:R:3:Z:I:1 pbc="F F F"
C       0.70737996      -0.82690415      -0.53263055        6 
C       0.82619007       0.79660662      -0.46388354        6 
C      -0.74765847      -1.30868409      -0.57314180        6 
C      -0.54856624       1.47890476      -0.46352668        6 
O      -1.22603223      -1.73951020       0.61179120        8 
O      -1.41008110      -1.33600314      -1.58189073        8 
O      -1.02522492       1.76799024       0.76478967        8 
O      -1.16655948       1.73446900      -1.46809412        8 
C      -2.34124471       2.34922754       0.80203137        6 
C      -2.58781905      -2.20491098       0.60371490        6 
C       1.53702365      -1.25264859       0.74619713        6 
C       0.84597250      -0.79623746       2.02231563        6 
C       0.94091794       0.53281383       2.07774895        6 
C       1.70016410       0.98909058       0.84136654        6 
C       2.67637275      -0.20456132       0.69758073        6 
C       1.34813816      -1.44145023      -1.79685461        6 
C       1.56036213       1.40549360      -1.67770117        6 
H      -2.35493386       3.30301109       0.27271643        1 
H      -2.69318897      -3.06628381      -0.05774872        1 
H       0.49104816       1.19481978       2.80202031        1 
H      -2.56534361       2.49062472       1.85727343        1 
H      -3.06525386       1.67626644       0.33988836        1 
H      -2.80508381      -2.48165207       1.63320985        1 
H      -3.25918351      -1.41406309       0.26583905        1 
H       2.13750852       1.98644944       0.89230243        1 
H       1.82526200      -2.30356686       0.71105027        1 
H       2.57307804       1.01970206      -1.77793089        1 
H       1.01510004       1.21884949      -2.60104171        1 
H       1.62668899       2.48929428      -1.55019506        1 
H       1.24513479      -2.52939263      -1.75592188        1 
H       0.84859461      -1.10006528      -2.70203053        1 
H       2.41028278      -1.21412586      -1.86845976        1 
H       3.34897380      -0.29246500       1.55100603        1 
H       3.26084851      -0.20871962      -0.22178808        1 
H       0.30196905      -1.44575406       2.69136726        1 
