35
Lattice="0.0 0.0 0.0 0.0 0.0 0.0 0.0 0.0 0.0" Properties=species:S:1:pos:R:3:Z:I:1 pbc="F F F"
C       0.24300654      -0.96721677       0.61553607        6 
C      -1.15211845      -0.15082018       0.42869263        6 
C       1.49314611      -0.07661133       0.58074944        6 
C      -0.95913266       1.37301325       0.37512836        6 
O       2.34543550      -0.39354243      -0.41723580        8 
O       1.75974688       0.74880581       1.41913296        8 
O      -0.86284017       1.86280797      -0.87922686        8 
O      -0.88929327       2.07735985       1.35039164        8 
C      -0.64068899       3.28068011      -0.98472495        6 
C       3.56820598       0.36236037      -0.46646490        6 
C       0.15806689      -1.99636612      -0.58677892        6 
C       0.27629256      -1.24827435      -1.90722643        6 
C      -0.84749673      -0.54923130      -2.07256408        6 
C      -1.74044110      -0.82647573      -0.87271659        6 
C      -1.35570818      -2.30430301      -0.61390595        6 
C       0.35057992      -1.71262966       1.96154949        6 
C      -2.14398857      -0.36144668       1.59712100        6 
H      -1.48352269       3.83177004      -0.56447571        1 
H       4.13242673       0.24139486       0.45938746        1 
H      -1.07799178       0.15357553      -2.85907079        1 
H      -0.54701664       3.47872588      -2.05068871        1 
H       0.27024036       3.56277050      -0.45554003        1 
H       4.12256806      -0.04084968      -1.31138605        1 
H       3.35410887       1.42145362      -0.61854256        1 
H      -2.79920012      -0.60301928      -1.00583272        1 
H       0.83647953      -2.83954361      -0.45901586        1 
H      -2.38151627      -1.41133704       1.75431931        1 
H      -1.75933130       0.05881212       2.52465457        1 
H      -3.07885431       0.15738377       1.36738158        1 
H       1.29833928      -2.25734529       1.99856130        1 
H       0.33206986      -1.01614589       2.79934365        1 
H      -0.45224393      -2.43825513       2.08415818        1 
H      -1.62666522      -2.95091531      -1.44931101        1 
H      -1.75296944      -2.73023937       0.30794844        1 
H       1.15732756      -1.23751470      -2.53055576        1 
