35
Lattice="0.0 0.0 0.0 0.0 0.0 0.0 0.0 0.0 0.0" Properties=species:S:1:pos:R:3:Z:I:1 pbc="F F F"
C       0.85481589      -0.75581112      -0.45580958        6 
C       0.70198560       0.87405977      -0.47428098        6 
C      -0.33457850      -1.74367181      -0.49722879        6 
C      -0.64561165       1.63609409      -0.51240331        6 
O      -1.43927607      -1.36921635       0.15049643        8 
O      -0.22892427      -2.85362151      -0.97550500        8 
O      -1.63801259       1.12675645       0.22164988        8 
O      -0.75077273       2.72163605      -1.04411657        8 
C      -2.83877791       1.91171487       0.29681238        6 
C      -2.49782358      -2.33914113       0.21214530        6 
C       1.56317914      -0.98283269       0.96448810        6 
C       0.58901522      -0.60414574       2.06668574        6 
C       0.46873197       0.72588148       2.05431576        6 
C       1.35805555       1.25280564       0.94243145        6 
C       2.50966687       0.23114433       1.02427100        6 
C       1.80463208      -1.26088524      -1.56754796        6 
C       1.54241965       1.51944064      -1.59995997        6 
H      -2.63999362       2.87863225       0.76244222        1 
H      -2.16917150      -3.23529240       0.74107823        1 
H      -0.21651947       1.32560945       2.63661559        1 
H      -3.52429133       1.32607370       0.90641904        1 
H      -3.25370178       2.07643822      -0.69858207        1 
H      -3.30403300      -1.84781063       0.75344992        1 
H      -2.82231603      -2.61843782      -0.79140198        1 
H       1.61607373       2.31048638       0.98781026        1 
H       2.00633145      -1.97601635       1.02934079        1 
H       2.58578131       1.22217419      -1.55678699        1 
H       1.15361643       1.25952412      -2.58637065        1 
H       1.49258218       2.60204048      -1.50995113        1 
H       1.94911366      -2.33287702      -1.45508845        1 
H       1.37859803      -1.09639915      -2.55907322        1 
H       2.77880255      -0.78246176      -1.53134047        1 
H       3.03685993       0.28786608       1.97733412        1 
H       3.23286038       0.29181450       0.21253236        1 
H       0.02024025      -1.30718863       2.65939968        1 
