35
Lattice="0.0 0.0 0.0 0.0 0.0 0.0 0.0 0.0 0.0" Properties=species:S:1:pos:R:3:Z:I:1 pbc="F F F"
C      -0.36413124      -0.94950652       0.60096128        6 
C      -1.05014156       0.50993678       0.46707878        6 
C       1.17816224      -1.00805338       0.59563464        6 
C      -0.16916009       1.73457256       0.18472538        6 
O       1.72393943      -1.11558196      -0.63089130        8 
O       1.83994121      -1.14129742       1.59897525        8 
O       1.12645581       1.47204883      -0.03118241        8 
O      -0.61402464       2.85974287       0.16637413        8 
C       1.96575260       2.60066224      -0.33613197        6 
C       3.15295931      -1.22486515      -0.67426810        6 
C      -1.00075249      -1.67993164      -0.66789924        6 
C      -0.54553559      -0.99692489      -1.95088855        6 
C      -1.15402619       0.18972646      -2.01900783        6 
C      -2.01990226       0.31950703      -0.77821195        6 
C      -2.45258205      -1.14971169      -0.60444692        6 
C      -0.77531329      -1.70753350       1.88178165        6 
C      -1.88099321       0.89840128       1.71174805        6 
H       1.60752883       3.10485731      -1.23447510        1 
H       3.48718013      -2.13356411      -0.17094177        1 
H      -0.99899766       0.97165787      -2.75063270        1 
H       2.95798215       2.18596641      -0.49775776        1 
H       1.97348235       3.30643385       0.49525323        1 
H       3.40944016      -1.25553199      -1.73165918        1 
H       3.61593726      -0.36254466      -0.19142897        1 
H      -2.79663364       1.08234128      -0.80647079        1 
H      -0.86160889      -2.76053962      -0.63036780        1 
H      -2.67711338       0.18052484       1.89966903        1 
H      -1.25938890       0.95869607       2.60770559        1 
H      -2.33140210       1.87637255       1.54705170        1 
H      -0.34348798      -2.71039689       1.85901520        1 
H      -0.39553399      -1.21430396       2.77496497        1 
H      -1.85421816      -1.81233962       1.97035387        1 
H      -3.05377774      -1.49806077      -1.44560835        1 
H      -2.98298972      -1.36309883       0.32340389        1 
H       0.19985524      -1.39244921      -2.62320904        1 
