35
Lattice="0.0 0.0 0.0 0.0 0.0 0.0 0.0 0.0 0.0" Properties=species:S:1:pos:R:3:Z:I:1 pbc="F F F"
C       0.90595585      -0.00876081      -0.81244124        6 
C      -0.16233229       1.07774970      -0.24255978        6 
C       0.41793589      -1.46522728      -0.72011220        6 
C      -1.40619805       0.42873695       0.38014747        6 
O       0.64052476      -2.05856307       0.45823614        8 
O      -0.02041243      -2.07252073      -1.67322166        8 
O      -2.55455439       0.87529026      -0.18028410        8 
O      -1.41101493      -0.39125918       1.26600133        8 
C      -3.76835362       0.29327723       0.32544891        6 
C       0.14511324      -3.39930434       0.59984227        6 
C       2.17586851       0.30645105       0.10286671        6 
C       1.89243020      -0.03015264       1.55871288        6 
C       1.00857746       0.85949725       2.01473562        6 
C       0.70090264       1.81341877       0.87727926        6 
C       2.08306725       1.84690037       0.18595705        6 
C       1.27453432       0.20505829      -2.29337901        6 
C      -0.59132311       2.10835535      -1.30599685        6 
H      -3.76899549      -0.78560424       0.16190963        1 
H       0.60341699      -4.06055059      -0.13711731        1 
H       0.50434885       0.85119952       2.97015173        1 
H      -4.57062139       0.76612677      -0.23714493        1 
H      -3.87582771       0.49378227       1.39248427        1 
H       0.41397284      -3.69978803       1.61030915        1 
H      -0.93849490      -3.41157633       0.47630034        1 
H       0.25769396       2.77020321       1.15519685        1 
H       3.08843165      -0.11777081      -0.31710026        1 
H       0.26623962       2.62745879      -1.72884905        1 
H      -1.14606310       1.64572550      -2.12187553        1 
H      -1.24348592       2.85581276      -0.85265956        1 
H       2.01457004      -0.54226750      -2.58819420        1 
H       0.41234841       0.07711914      -2.94586106        1 
H       1.70576744       1.18867079      -2.46885702        1 
H       2.85168248       2.26854245       0.83388792        1 
H       2.10097750       2.36404185      -0.77268236        1 
H       2.26325934      -0.90444471       2.07097193        1 
