35
Lattice="0.0 0.0 0.0 0.0 0.0 0.0 0.0 0.0 0.0" Properties=species:S:1:pos:R:3:Z:I:1 pbc="F F F"
C      -0.54596773       0.34643790       0.69416059        6 
C       0.97518950       0.60642185       0.28480079        6 
C      -1.30105087      -0.76432487      -0.07035188        6 
C       1.87106437      -0.53732692      -0.20242604        6 
O      -2.62855550      -0.66997229       0.23904053        8 
O      -0.89408311      -1.61323201      -0.81584679        8 
O       1.44785298      -1.74273498       0.20405748        8 
O       3.00154616      -0.35386307      -0.59904008        8 
C       2.32182641      -2.85243694      -0.05416014        6 
C      -3.49235430      -1.61394279      -0.41111520        6 
C      -1.21867163       1.68925517       0.07420891        6 
C      -1.23410862       1.45799806      -1.43497024        6 
C       0.03254994       1.51786971      -1.85812766        6 
C       0.90202223       1.85484414      -0.65846051        6 
C      -0.09147789       2.73203292       0.14534478        6 
C      -0.81653084       0.18116658       2.19547065        6 
C       1.82533494       1.01033407       1.54758434        6 
H       2.51718334      -2.94072869      -1.12368897        1 
H      -3.22938582      -2.63536981      -0.13047472        1 
H       0.40749270       1.28745343      -2.84645263        1 
H       1.78620857      -3.72847518       0.30529982        1 
H       3.26843762      -2.73107006       0.47594093        1 
H      -4.49692069      -1.37134511      -0.06955413        1 
H      -3.42292174      -1.51605576      -1.49616790        1 
H       1.88602319       2.26291794      -0.87847626        1 
H      -2.17232090       1.92526508       0.54033893        1 
H       1.36037944       1.79228646       2.14040779        1 
H       1.99042312       0.15069601       2.20025080        1 
H       2.79768995       1.36608740       1.20792607        1 
H      -1.88432323       0.05006582       2.36412492        1 
H      -0.29596772      -0.69436999       2.59088213        1 
H      -0.49146796       1.05554745       2.75789738        1 
H      -0.35560904       3.64417115      -0.39161910        1 
H       0.22883407       2.99322011       1.15176641        1 
H      -2.10322467       1.16129897      -2.00721998        1 
