35
Lattice="0.0 0.0 0.0 0.0 0.0 0.0 0.0 0.0 0.0" Properties=species:S:1:pos:R:3:Z:I:1 pbc="F F F"
C       0.50292986       1.03570488       0.14515587        6 
C       0.72499390      -0.40792265       0.86671221        6 
C      -0.84693650       1.12579848      -0.57640958        6 
C      -0.51463180      -1.31212993       0.77670411        6 
O      -1.79611258       1.65542355       0.23083879        8 
O      -1.10209103       0.72743197      -1.68558654        8 
O      -0.69356710      -1.87580657      -0.42734960        8 
O      -1.26123354      -1.52203177       1.70610194        8 
C      -1.87634116      -2.67528171      -0.59276184        6 
C      -3.12864949       1.70518884      -0.30676239        6 
C       1.71031787       1.05808560      -0.88543073        6 
C       1.51599160      -0.00475584      -1.95304268        6 
C       1.69692673      -1.19161496      -1.37203103        6 
C       2.00790324      -0.94298024       0.09296137        6 
C       2.81218116       0.37125601      -0.04646479        6 
C       0.62817799       2.23631418       1.10398834        6 
C       1.04036877      -0.29423490       2.36988764        6 
H      -1.86525887      -3.52556102       0.09092667        1 
H      -3.48334552       0.69997354      -0.54067832        1 
H       1.54554152      -2.16562650      -1.81314129        1 
H      -1.85405714      -3.00888687      -1.62782378        1 
H      -2.76895469      -2.07673382      -0.40479925        1 
H      -3.73912886       2.15201279       0.47481886        1 
H      -3.15484431       2.31336563      -1.21219408        1 
H       2.48472941      -1.76547136       0.62744858        1 
H       1.91281505       2.06664132      -1.24694838        1 
H       1.93594134       0.29561510       2.55517612        1 
H       0.20993553       0.14128278       2.92320523        1 
H       1.20667562      -1.29366550       2.77779123        1 
H       0.44139796       3.16085302       0.55175379        1 
H      -0.09225710       2.19141035       1.91877405        1 
H       1.62904469       2.30271489       1.52784130        1 
H       3.73028599       0.22845337      -0.61701553        1 
H       3.04857087       0.86785751       0.89413443        1 
H       1.18776911       0.18725778      -2.96312825        1 
