35
Lattice="0.0 0.0 0.0 0.0 0.0 0.0 0.0 0.0 0.0" Properties=species:S:1:pos:R:3:Z:I:1 pbc="F F F"
C       0.76846199      -0.44913786      -0.80534082        6 
C       0.42500437       1.02868078      -0.21976125        6 
C      -0.34385210      -1.50784210      -0.71065856        6 
C      -0.94520291       1.15515196       0.46657014        6 
O      -0.79901053      -1.71626036       0.53069278        8 
O      -0.74214124      -2.14756531      -1.65941865        8 
O      -1.85603513       1.71858180      -0.36863103        8 
O      -1.25534305       0.74756820       1.55621068        8 
C      -3.20213864       1.80126332       0.12862643        6 
C      -1.84274634      -2.69267601       0.67579041        6 
C       2.04342551      -0.84968082       0.06678820        6 
C       1.65786503      -1.00923702       1.52586623        6 
C       1.37854994       0.20582435       2.00245217        6 
C       1.58183418       1.19615091       0.86886371        6 
C       2.76518808       0.51502062       0.14471757        6 
C       1.17113114      -0.41849541      -2.29407030        6 
C       0.55778418       2.15365325      -1.26722287        6 
H      -3.58818173       0.80523378       0.35287494        1 
H      -1.49066458      -3.67937946       0.36983802        1 
H       0.97086818       0.45171350       2.97088125        1 
H      -3.77790423       2.26338628      -0.67058340        1 
H      -3.24209837       2.41030104       1.03301121        1 
H      -2.09875362      -2.68146753       1.73270006        1 
H      -2.70667718      -2.41955169       0.06748045        1 
H       1.70872291       2.23900876       1.16125849        1 
H       2.58647874      -1.68001697      -0.38526802        1 
H       1.57473420       2.22506555      -1.64829911        1 
H      -0.11791509       2.01701662      -2.10968441        1 
H       0.31074020       3.11089615      -0.80332391        1 
H       1.46708135      -1.41992120      -2.60767935        1 
H       0.33822990      -0.11857217      -2.92994606        1 
H       2.00590448       0.25409497      -2.47592494        1 
H       3.65547527       0.46762803       0.77216308        1 
H       3.02782897       0.95269803      -0.81750797        1 
H       1.52111983      -1.95603093       2.02842620        1 
