35
Lattice="0.0 0.0 0.0 0.0 0.0 0.0 0.0 0.0 0.0" Properties=species:S:1:pos:R:3:Z:I:1 pbc="F F F"
C       0.91171638       0.56288924      -0.60390319        6 
C      -0.68658494       0.67870108      -0.35934004        6 
C       1.66105523      -0.78519573      -0.47880943        6 
C      -1.50879603      -0.61809893      -0.25236682        6 
O       1.32104506      -1.52910503       0.57537192        8 
O       2.61952815      -1.05915918      -1.17017452        8 
O      -2.83758400      -0.31116766      -0.26231591        8 
O      -1.13955838      -1.74886999      -0.07852354        8 
C      -3.73904927      -1.41671269      -0.09516044        6 
C       2.01840846      -2.77156843       0.73925286        6 
C       1.43935871       1.45668591       0.63500613        6 
C       1.12866288       0.73613711       1.93927764        6 
C      -0.19302988       0.78356527       2.12345171        6 
C      -0.78448577       1.55410547       0.95947107        6 
C       0.36133778       2.55904492       0.69990935        6 
C       1.38751996       1.19175792      -1.92536606        6 
C      -1.36925645       1.47269316      -1.51851809        6 
H      -3.60247293      -2.14775507      -0.89360510        1 
H       3.08883084      -2.60331013       0.86976133        1 
H      -0.76698255       0.27960913       2.88965397        1 
H      -4.73697783      -0.98479434      -0.14004193        1 
H      -3.57595916      -1.90631842       0.86653829        1 
H       1.58537151      -3.22649152       1.62767624        1 
H       1.85816349      -3.41139246      -0.12985625        1 
H      -1.78613427       1.95590485       1.10169620        1 
H       2.47398943       1.76606136       0.49074898        1 
H      -0.87089930       2.41447651      -1.72509346        1 
H      -1.38057234       0.89277271      -2.44444004        1 
H      -2.40150129       1.68842321      -1.25253526        1 
H       2.46899216       1.09878346      -1.99789574        1 
H       0.96213754       0.67757471      -2.78927573        1 
H       1.13153053       2.24636053      -1.99230339        1 
H       0.51457920       3.22892045       1.54674567        1 
H       0.25683338       3.15127998      -0.20802844        1 
H       1.85027063       0.19049758       2.52961043        1 
