35
Lattice="0.0 0.0 0.0 0.0 0.0 0.0 0.0 0.0 0.0" Properties=species:S:1:pos:R:3:Z:I:1 pbc="F F F"
C       0.65752128      -0.58148923      -0.74035764        6 
C       0.63157341       0.95006803      -0.25284428        6 
C      -0.57815689      -1.46109027      -0.47868336        6 
C      -0.69704531       1.58023436       0.16811624        6 
O      -1.08788747      -1.36603660       0.76290492        8 
O      -0.98527267      -2.27993906      -1.27161551        8 
O      -1.77264492       0.92459870      -0.31151770        8 
O      -0.78214436       2.69733424       0.62453801        8 
C      -3.04530405       1.57352311      -0.14819453        6 
C      -2.23725755      -2.18188796       1.03100323        6 
C       1.84944706      -1.14092525       0.19614306        6 
C       1.40338822      -1.11085725       1.65200176        6 
C       1.33891971       0.16846366       2.03057162        6 
C       1.75961511       1.01226869       0.84290230        6 
C       2.80617386       0.06902920       0.20636343        6 
C       1.02775328      -0.78151299      -2.21842586        6 
C       1.02540953       1.92899622      -1.40975135        6 
H      -3.27729547       1.69610675       0.91094835        1 
H      -2.00469172      -3.23959983       0.89790075        1 
H       0.95244389       0.56107305       2.96137307        1 
H      -3.76789674       0.91382740      -0.62407458        1 
H      -3.04131777       2.55269552      -0.62934843        1 
H      -2.50501940      -1.97385466       2.06497635        1 
H      -3.05683043      -1.91307791       0.36153278        1 
H       2.06285302       2.03446614       1.06067575        1 
H       2.23744948      -2.09092474      -0.17154900        1 
H       1.99310941       1.68380249      -1.83923263        1 
H       0.28552067       1.91756264      -2.21302538        1 
H       1.07433375       2.94096145      -1.00846527        1 
H       1.09032891      -1.84700861      -2.43487953        1 
H       0.26835413      -0.36333402      -2.88160060        1 
H       1.98621853      -0.32680736      -2.45900248        1 
H       3.66298446      -0.09328550       0.86136473        1 
H       3.16421826       0.37400285      -0.77651139        1 
H       1.08338944      -1.97639036       2.21445289        1 
