35
Lattice="0.0 0.0 0.0 0.0 0.0 0.0 0.0 0.0 0.0" Properties=species:S:1:pos:R:3:Z:I:1 pbc="F F F"
C       0.54118666      -0.63969284      -0.74437771        6 
C       0.69051664       0.92823575      -0.36045688        6 
C      -0.85053989      -1.25741755      -0.54275758        6 
C      -0.45657127       1.60341484       0.40247290        6 
O      -0.92243948      -2.08022130       0.52616201        8 
O      -1.78648713      -1.08323655      -1.28309712        8 
O      -1.64783148       1.40984727      -0.18036421        8 
O      -0.30062762       2.33558351       1.35238226        8 
C      -2.77608350       2.08432700       0.40146749        6 
C      -2.19209400      -2.72376678       0.73554224        6 
C       1.68657730      -1.27825923       0.13525845        6 
C       1.38140575      -1.06646803       1.61243441        6 
C       1.55485940       0.22999475       1.88066519        6 
C       1.96198669       0.90707486       0.57867834        6 
C       2.80174543      -0.22201355      -0.05080210        6 
C       0.82100520      -0.93034969      -2.24203391        6 
C       0.91368653       1.84657268      -1.58230665        6 
H      -2.91499463       1.77231085       1.43779843        1 
H      -2.45379651      -3.34117380      -0.12524756        1 
H       1.34400124       0.75123235       2.80262816        1 
H      -3.62856764       1.78924964      -0.20633476        1 
H      -2.63310234       3.16566083       0.36924088        1 
H      -2.06278134      -3.33789058       1.62422748        1 
H      -2.97497245      -1.98020364       0.89148874        1 
H       2.42054064       1.88961053       0.67383346        1 
H       1.91016950      -2.30309100      -0.16104796        1 
H       1.82311586       1.58305250      -2.12186873        1 
H       0.07097538       1.79844207      -2.27287087        1 
H       1.01954417       2.87991745      -1.24211764        1 
H       0.78038196      -2.01047897      -2.40894242        1 
H       0.06445985      -0.47311916      -2.87809070        1 
H       1.80412303      -0.58872173      -2.55859069        1 
H       3.68909757      -0.45284887       0.53984536        1 
H       3.09996374      -0.04464637      -1.08480009        1 
H       1.00786224      -1.83364391       2.27411394        1 
