35
Lattice="0.0 0.0 0.0 0.0 0.0 0.0 0.0 0.0 0.0" Properties=species:S:1:pos:R:3:Z:I:1 pbc="F F F"
C      -0.40581594      -0.96507345       0.39998141        6 
C      -0.69307428       0.57714585       0.75668943        6 
C       0.95964762      -1.32062255      -0.18738684        6 
C       0.17051060       1.68122298       0.10955707        6 
O       1.95773745      -1.06333655       0.68282626        8 
O       1.12528030      -1.96067231      -1.19916275        8 
O       1.40942140       1.32322878      -0.25613673        8 
O      -0.26861709       2.78778498      -0.10779753        8 
C       2.16626271       2.31302361      -0.97759345        6 
C       3.27722981      -1.41749524       0.24902104        6 
C      -1.58871066      -1.32614120      -0.56110990        6 
C      -1.49696686      -0.45649425      -1.80373911        6 
C      -1.84217558       0.78641265      -1.45213758        6 
C      -2.12350565       0.77008593       0.04741560        6 
C      -2.75780911      -0.62321944       0.17224287        6 
C      -0.47638721      -1.89642776       1.64865840        6 
C      -0.75470837       0.89650939       2.25851804        6 
H       1.65641692       2.56986287      -1.90734319        1 
H       3.52156411      -0.90489959      -0.68329121        1 
H      -1.81566214       1.67771897      -2.06273689        1 
H       3.12696581       1.84616985      -1.18354614        1 
H       2.29437391       3.21292053      -0.37535125        1 
H       3.94334839      -1.09533755       1.04679345        1 
H       3.35725503      -2.49489038       0.09322088        1 
H      -2.66931947       1.62281114       0.44392493        1 
H      -1.67047565      -2.39774133      -0.73582400        1 
H      -1.51347295       0.29784120       2.76361068        1 
H       0.20617959       0.71162435       2.74429179        1 
H      -1.01337851       1.94881417       2.39166432        1 
H      -0.28125545      -2.92556268       1.33417362        1 
H       0.27001374      -1.62765115       2.39367056        1 
H      -1.45803592      -1.88044339       2.11715267        1 
H      -3.69381739      -0.69663529      -0.38380581        1 
H      -2.92832509      -0.95375111       1.19661312        1 
H      -1.12956076      -0.79925805      -2.76074308        1 
