35
Lattice="0.0 0.0 0.0 0.0 0.0 0.0 0.0 0.0 0.0" Properties=species:S:1:pos:R:3:Z:I:1 pbc="F F F"
C       0.70328950      -0.38737819      -0.78047496        6 
C       0.39359410       1.04575358      -0.15414547        6 
C      -0.18663868      -1.59119729      -0.41535321        6 
C      -1.04307818       1.41533652       0.21918939        6 
O      -1.01849946      -1.41445209       0.62116553        8 
O      -0.01738804      -2.68030921      -0.92001010        8 
O      -1.95380765       0.69761367      -0.47114077        8 
O      -1.33969190       2.44908225       0.77433450        8 
C      -3.31446346       1.15069143      -0.39328612        6 
C      -1.73225899      -2.57929326       1.06337047        6 
C       2.06919907      -0.74201692       0.02566510        6 
C       1.67488664      -1.02355409       1.47134468        6 
C       1.29870180       0.13617868       2.01724006        6 
C       1.47905208       1.21669131       0.96667432        6 
C       2.71138495       0.64445236       0.21664927        6 
C       0.92879606      -0.42172645      -2.29625566        6 
C       0.62973523       2.18255811      -1.21761908        6 
H      -3.66790325       1.12638486       0.63876169        1 
H      -1.03850277      -3.36051802       1.37920472        1 
H       0.85086382       0.29124466       2.98969419        1 
H      -3.88520048       0.45699948      -1.00749786        1 
H      -3.40425115       2.16881408      -0.77665568        1 
H      -2.34063812      -2.24438930       1.90086838        1 
H      -2.36248539      -2.96817512       0.26180904        1 
H       1.53452847       2.23925366       1.33441615        1 
H       2.64247362      -1.51658359      -0.48059607        1 
H       1.60575263       2.11704533      -1.68923764        1 
H      -0.12407902       2.14911724      -2.00675050        1 
H       0.55240458       3.14778913      -0.71770584        1 
H       1.12432380      -1.44771719      -2.60496297        1 
H       0.04586695      -0.06997673      -2.83518536        1 
H       1.77923323       0.19059639      -2.59356287        1 
H       3.59271308       0.59528225       0.85725419        1 
H       2.97284336       1.15915878      -0.70614390        1 
H       1.58949533      -2.01151652       1.90469046        1 
