35
Lattice="0.0 0.0 0.0 0.0 0.0 0.0 0.0 0.0 0.0" Properties=species:S:1:pos:R:3:Z:I:1 pbc="F F F"
C       0.73870479      -0.54890368      -0.76399851        6 
C       0.58107305       0.98611138      -0.28649243        6 
C      -0.50150238      -1.42871174      -0.57110359        6 
C      -0.76341905       1.30780208       0.36585157        6 
O      -1.03574337      -1.34400610       0.66142592        8 
O      -0.96466598      -2.14823222      -1.42522485        8 
O      -1.75543762       1.26962778      -0.55660661        8 
O      -0.96294539       1.55895344       1.52684085        8 
C      -3.08689509       1.49207767      -0.06350065        6 
C      -2.21457419      -2.13149270       0.89733818        6 
C       1.95936839      -1.03199001       0.14083627        6 
C       1.55793769      -1.01947884       1.60606072        6 
C       1.44035029       0.25630935       1.98132552        6 
C       1.75860951       1.11688170       0.76823946        6 
C       2.84041750       0.23769001       0.10631179        6 
C       1.12131501      -0.68861897      -2.25045859        6 
C       0.77095795       2.02055980      -1.41727920        6 
H      -3.33003883       0.76537635       0.71325674        1 
H      -1.98982577      -3.19540630       0.80566512        1 
H       1.07078874       0.63295870       2.92245796        1 
H      -3.74052272       1.36812143      -0.92434931        1 
H      -3.18128950       2.49825140       0.34821090        1 
H      -2.52334443      -1.88919449       1.91185573        1 
H      -2.99535228      -1.87227359       0.18027898        1 
H       2.01103532       2.15672099       0.97382553        1 
H       2.39438604      -1.95836038      -0.23504305        1 
H       1.77747803       1.98162666      -1.83225967        1 
H       0.05411888       1.87439629      -2.22356384        1 
H       0.62036121       3.02619130      -1.01446887        1 
H       1.28027733      -1.74109659      -2.48659752        1 
H       0.32600163      -0.33084199      -2.90502980        1 
H       2.03459229      -0.14681357      -2.48773436        1 
H       3.72769441       0.13664434       0.73206658        1 
H       3.14245001       0.55632705      -0.89156976        1 
H       1.30487784      -1.89842957       2.18246899        1 
