35
Lattice="0.0 0.0 0.0 0.0 0.0 0.0 0.0 0.0 0.0" Properties=species:S:1:pos:R:3:Z:I:1 pbc="F F F"
C       1.03240810      -0.37803754      -0.53418208        6 
C      -0.04369480       0.83489051      -0.57797958        6 
C       0.62566836      -1.81150972      -0.13563071        6 
C      -1.39325079       0.68510545       0.15640259        6 
O      -0.63856240      -1.96577149       0.25968427        8 
O       1.35656958      -2.75928360      -0.32866031        8 
O      -2.40718887       1.24571759      -0.55828292        8 
O      -1.59343757       0.18820709       1.23332171        8 
C      -3.70201163       1.20775898       0.06182602        6 
C      -1.07157293      -3.30931619       0.53344790        6 
C       2.18119608       0.18950434       0.39431146        6 
C       1.63383550       0.36556337       1.79735099        6 
C       0.78951354       1.40016085       1.76819234        6 
C       0.74844243       1.91720680       0.33687055        6 
C       2.21214434       1.66290222      -0.06927683        6 
C       1.64414701      -0.62788709      -1.95091516        6 
C      -0.26569815       1.42261688      -1.98254382        6 
H      -4.00675653       0.17714080       0.25085911        1 
H      -0.44705299      -3.76339809       1.30328594        1 
H       0.14628775       1.73980619       2.56676491        1 
H      -4.37640062       1.68218970      -0.64857078        1 
H      -3.69410686       1.75432244       1.00640833        1 
H      -2.09774645      -3.21025353       0.88054315        1 
H      -1.02360192      -3.91773070      -0.37153641        1 
H       0.35438932       2.92420894       0.19707375        1 
H       3.09561831      -0.39455957       0.30100980        1 
H       0.67068574       1.72249801      -2.44578823        1 
H      -0.76449488       0.71391284      -2.64600848        1 
H      -0.89787037       2.30586976      -1.91759094        1 
H       2.43234643      -1.37264178      -1.86314876        1 
H       0.89576787      -1.01777773      -2.64450057        1 
H       2.07027528       0.27122531      -2.38602617        1 
H       2.90823159       2.26085382       0.51997788        1 
H       2.42447772       1.80808839      -1.12751113        1 
H       1.81814811      -0.30867726       2.62302979        1 
