35
Lattice="0.0 0.0 0.0 0.0 0.0 0.0 0.0 0.0 0.0" Properties=species:S:1:pos:R:3:Z:I:1 pbc="F F F"
C       0.77427531       0.65124148      -0.47725455        6 
C      -0.82216148       0.59405875      -0.63696930        6 
C       1.36451374      -0.64975093       0.06730133        6 
C      -1.38000660      -0.82778061      -0.53913750        6 
O       2.68860342      -0.74838962      -0.18209595        8 
O       0.77172290      -1.47425558       0.72030375        8 
O      -2.21058403      -1.00986904       0.50187433        8 
O      -1.19552068      -1.66370183      -1.39294219        8 
C      -2.75109300      -2.33608673       0.63899314        6 
C       3.33910562      -1.91550297       0.35372696        6 
C       0.94085660       1.75896249       0.66764088        6 
C       0.42375933       1.17291762       1.97148281        6 
C      -0.90202971       1.06387515       1.85713854        6 
C      -1.29556995       1.59974714       0.48880804        6 
C      -0.22760785       2.70716531       0.32866619        6 
C       1.51258857       1.08214276      -1.75400819        6 
C      -1.33643407       1.08247744      -2.01368671        6 
H      -3.32587252      -2.61059886      -0.24705389        1 
H       2.90562057      -2.82045227      -0.07467685        1 
H      -1.58206089       0.58170459       2.54310599        1 
H      -3.39254070      -2.29904807       1.51703442        1 
H      -1.94060505      -3.05191955       0.78185339        1 
H       4.38495835      -1.81902923       0.07078985        1 
H       3.23361251      -1.94816070       1.43924843        1 
H      -2.33952112       1.88908981       0.37421397        1 
H       1.94722927       2.17635296       0.68287673        1 
H      -1.07930116       2.12225110      -2.20780308        1 
H      -0.94710658       0.46335265      -2.82050678        1 
H      -2.42695377       1.00351085      -2.03436982        1 
H       2.57831398       1.18392978      -1.55349627        1 
H       1.38991193       0.34357316      -2.54890152        1 
H       1.14569603       2.04035746      -2.12182815        1 
H      -0.33687820       3.49965786       1.06978630        1 
H      -0.17313685       3.15071426      -0.66575796        1 
H       1.04531289       0.78841562       2.76894441        1 
