35
Lattice="0.0 0.0 0.0 0.0 0.0 0.0 0.0 0.0 0.0" Properties=species:S:1:pos:R:3:Z:I:1 pbc="F F F"
C       0.55873127      -0.78167834       0.44040628        6 
C      -1.01372460      -0.47653050       0.55824317        6 
C       1.47887745       0.44002872       0.43431258        6 
C      -1.50171434       0.98043693       0.39752560        6 
O       2.72691144       0.07916517       0.04461284        8 
O       1.19057267       1.57960344       0.69646469        8 
O      -1.02331950       1.60930501      -0.68608556        8 
O      -2.37491031       1.46017609       1.08474637        8 
C      -1.46725670       2.95949702      -0.88116029        6 
C       3.69562848       1.13958553      -0.02353804        6 
C       0.66248049      -1.70378682      -0.83812227        6 
C       0.28568001      -0.89168999      -2.06096892        6 
C      -1.02862187      -0.66284913      -1.99640348        6 
C      -1.54794576      -1.30584531      -0.71753643        6 
C      -0.62605601      -2.54365315      -0.67346984        6 
C       1.09532795      -1.58117063       1.66813703        6 
C      -1.67637679      -1.01876112       1.83360081        6 
H      -2.55044646       2.99537408      -1.01091351        1 
H       3.83132462       1.60036711       0.95618897        1 
H      -1.61796130      -0.04623481      -2.65945404        1 
H      -0.96068900       3.30157985      -1.78154154        1 
H      -1.18404700       3.57545148      -0.02671309        1 
H       4.61854501       0.66869441      -0.35557131        1 
H       3.37527631       1.90167229      -0.73594194        1 
H      -2.62332438      -1.47488213      -0.66670972        1 
H       1.60964051      -2.23725977      -0.88507445        1 
H      -1.50125931      -2.08542801       1.96176290        1 
H      -1.31641120      -0.49833464       2.72245410        1 
H      -2.75196591      -0.85459603       1.78178945        1 
H       2.15491712      -1.79330477       1.52222913        1 
H       0.98784835      -1.01028689       2.59285287        1 
H       0.58058850      -2.53086331       1.79984372        1 
H      -0.79074565      -3.20790322      -1.52291148        1 
H      -0.68530662      -3.12245208       0.24796223        1 
H       0.98785192      -0.49415209      -2.78137894        1 
