35
Lattice="0.0 0.0 0.0 0.0 0.0 0.0 0.0 0.0 0.0" Properties=species:S:1:pos:R:3:Z:I:1 pbc="F F F"
C       0.73999707      -0.44560108      -0.73390118        6 
C       0.32334740       1.03541463      -0.26755108        6 
C       0.00720581      -1.69515491      -0.19196816        6 
C      -1.08147719       1.32119760       0.25607683        6 
O      -1.23857413      -1.52470588       0.26344345        8 
O       0.56797530      -2.76802259      -0.13721885        8 
O      -2.03398567       0.77832826      -0.52623645        8 
O      -1.32777933       2.18389481       1.06848341        8 
C      -3.38901139       1.14325378      -0.22978275        6 
C      -1.88063686      -2.69559781       0.80151779        6 
C       2.17084866      -0.56209511      -0.00284535        6 
C       1.85586111      -0.70716901       1.48525572        6 
C       1.40751496       0.47669499       1.91598863        6 
C       1.45449119       1.43434565       0.73656085        6 
C       2.69001898       0.88167352      -0.01374929        6 
C       0.85275615      -0.64763392      -2.25421503        6 
C       0.34987758       2.04489512      -1.46766486        6 
H      -3.65828883       0.82913862       0.78057707        1 
H      -1.33303618      -3.06555899       1.66935076        1 
H       0.99673528       0.71939881       2.88650507        1 
H      -3.99763882       0.61883692      -0.96384361        1 
H      -3.52746555       2.22263256      -0.31494501        1 
H      -2.87860040      -2.36889237       1.08657055        1 
H      -1.93325598      -3.48299037       0.04844799        1 
H       1.43564318       2.49423940       0.98054417        1 
H       2.79228576      -1.33945979      -0.44043966        1 
H       1.31693859       2.07406698      -1.96284276        1 
H      -0.40888959       1.79774053      -2.20922482        1 
H       0.14068039       3.04688726      -1.08678839        1 
H       1.19145399      -1.66489869      -2.45749851        1 
H      -0.11091898      -0.49970613      -2.74761000        1 
H       1.57284759       0.03967577      -2.69842201        1 
H       3.60625923       0.98860281       0.56867829        1 
H       2.85306626       1.29793151      -1.00779851        1 
H       1.88510938      -1.64195812       2.02763012        1 
