35
Lattice="0.0 0.0 0.0 0.0 0.0 0.0 0.0 0.0 0.0" Properties=species:S:1:pos:R:3:Z:I:1 pbc="F F F"
C       0.56948796      -0.74113498      -0.55423004        6 
C       0.34924823       0.87333282      -0.55006228        6 
C      -0.44087038      -1.58334542       0.24711455        6 
C      -0.85572698       1.39754093       0.25174109        6 
O      -1.09624667      -2.47300019      -0.54899906        8 
O      -0.68403256      -1.49628787       1.42085337        8 
O      -1.62171502       2.24823560      -0.48567285        8 
O      -1.14142762       1.12280488       1.38689514        8 
C      -2.77643973       2.78131484       0.18325751        6 
C      -2.06604391      -3.30190094       0.11242030        6 
C       1.98691107      -0.85551116       0.18524250        6 
C       1.84179494      -0.41781077       1.63231400        6 
C       1.66111475       0.90508264       1.63295043        6 
C       1.68488456       1.36634328       0.18828427        6 
C       2.71840212       0.37576383      -0.38699548        6 
C       0.70567224      -1.32453625      -1.97671254        6 
C       0.31723241       1.46925725      -1.97277268        6 
H      -3.45582394       1.97709370       0.47139273        1 
H      -2.85780473      -2.69141978       0.54979629        1 
H       1.40619592       1.52742224       2.47801370        1 
H      -3.25028233       3.44217858      -0.53992680        1 
H      -2.48364160       3.33444851       1.07694233        1 
H      -2.46635829      -3.95270638      -0.66258500        1 
H      -1.59543825      -3.88966454       0.90221884        1 
H       1.86041320       2.42945109       0.02089604        1 
H       2.44172814      -1.83230655       0.01730588        1 
H       1.20947913       1.21166492      -2.53833902        1 
H      -0.55305559       1.13276567      -2.53655194        1 
H       0.26497495       2.55586775      -1.91287662        1 
H       0.92203047      -2.39138213      -1.91499946        1 
H      -0.21040524      -1.21626694      -2.55729009        1 
H       1.51794162      -0.85554453      -2.52780159        1 
H       3.70299997       0.50953483       0.06168773        1 
H       2.81622726       0.38947466      -1.47203940        1 
H       1.76781980      -1.08666686       2.47652364        1 
