35
Lattice="0.0 0.0 0.0 0.0 0.0 0.0 0.0 0.0 0.0" Properties=species:S:1:pos:R:3:Z:I:1 pbc="F F F"
C       0.48161832      -0.71770532       0.56979827        6 
C      -1.03505305      -0.15211470       0.51050912        6 
C       1.53596589       0.15013652      -0.12851000        6 
C      -1.23847483       1.16014723      -0.27166868        6 
O       2.75773868       0.01016131       0.44656974        8 
O       1.37777391       0.82009768      -1.11676958        8 
O      -1.21376248       2.22894006       0.56533239        8 
O      -1.32866302       1.28889085      -1.46311836        8 
C      -1.27855024       3.51478086      -0.07613394        6 
C       3.83468595       0.70524674      -0.20495602        6 
C       0.35305190      -2.10735299      -0.20661562        6 
C       0.04107626      -1.83484571      -1.66337817        6 
C      -1.21035055      -1.37212873      -1.72063007        6 
C      -1.75134618      -1.33267896      -0.29946004        6 
C      -1.03675671      -2.57167859       0.27971291        6 
C       0.93951862      -0.99509422       2.01971389        6 
C      -1.71102782      -0.00627308       1.88866477        6 
H      -0.45921694       3.62157877      -0.78840784        1 
H       3.64184875       1.77893200      -0.22476829        1 
H      -1.72655328      -0.98851498      -2.58648110        1 
H      -1.19452067       4.24462090       0.72651855        1 
H      -2.22707257       3.63261134      -0.60315972        1 
H       4.72054326       0.48560054       0.38736399        1 
H       3.95719913       0.34787382      -1.22878813        1 
H      -2.83668823      -1.28956506      -0.20358697        1 
H       1.20366389      -2.75791797      -0.00289504        1 
H      -1.78910872      -0.96397063       2.40056400        1 
H      -1.18350039       0.69238394       2.53625737        1 
H      -2.72467484       0.37734870       1.75276171        1 
H       1.90217862      -1.50346015       2.01167452        1 
H       1.05750680      -0.07133831       2.58876895        1 
H       0.23119490      -1.62842108       2.54855940        1 
H      -1.35014223      -3.49317196      -0.21206652        1 
H      -1.12682995      -2.69288444       1.35912857        1 
H       0.75538503      -1.88879984      -2.47319877        1 
