35
Lattice="0.0 0.0 0.0 0.0 0.0 0.0 0.0 0.0 0.0" Properties=species:S:1:pos:R:3:Z:I:1 pbc="F F F"
C       0.83560771       0.62523248      -0.47544103        6 
C      -0.76090083       0.36703539      -0.58619679        6 
C       1.66524332      -0.40429839       0.32236386        6 
C      -1.28149944      -0.94746398       0.00756740        6 
O       2.41700835      -1.17347032      -0.50777827        8 
O       1.63499631      -0.59985656       1.50762109        8 
O      -2.54789862      -1.19109263      -0.42685276        8 
O      -0.75118555      -1.65616560       0.82167770        8 
C      -3.19528261      -2.34113657       0.14250292        6 
C       3.13477676      -2.24659190       0.12492907        6 
C       0.83123852       1.98095903       0.38764047        6 
C       0.30272222       1.68294074       1.78453153        6 
C      -1.00913268       1.45596195       1.67948959        6 
C      -1.37339540       1.59641370       0.21434207        6 
C      -0.39344919       2.71378537      -0.19943255        6 
C       1.52735075       0.89461250      -1.82520710        6 
C      -1.24343841       0.42530328      -2.05977812        6 
H      -2.63022703      -3.24848172      -0.07670209        1 
H       2.44214528      -2.90298797       0.65389169        1 
H      -1.67876533       1.10757012       2.45413122        1 
H      -4.17737128      -2.38041169      -0.32464418        1 
H      -3.28863229      -2.23313491       1.22447195        1 
H       3.63273753      -2.77860815      -0.68344836        1 
H       3.86715059      -1.85535881       0.83324949        1 
H      -2.42884297       1.73643429      -0.01620203        1 
H       1.79184651       2.49497461       0.34070941        1 
H      -0.92520214       1.33988278      -2.55371761        1 
H      -0.86059662      -0.41844235      -2.63862478        1 
H      -2.33040304       0.38368926      -2.09564227        1 
H       2.59111725       1.07095319      -1.65826640        1 
H       1.44193107       0.05035029      -2.50786226        1 
H       1.12263288       1.77953392      -2.31345457        1 
H      -0.60143105       3.64944482       0.32059789        1 
H      -0.34484873       2.90296724      -1.27174672        1 
H       0.91606573       1.57344513       2.66504435        1 
