35
Lattice="0.0 0.0 0.0 0.0 0.0 0.0 0.0 0.0 0.0" Properties=species:S:1:pos:R:3:Z:I:1 pbc="F F F"
C      -0.97952998      -0.57784939      -0.28025832        6 
C       0.54663863      -0.37627635      -0.68558186        6 
C      -1.78695124       0.61736160       0.23200540        6 
C       1.30487080       0.70962962       0.10518889        6 
O      -1.36729557       1.77839567      -0.30256241        8 
O      -2.87712134       0.50326127       0.74604537        8 
O       2.62000510       0.67855484      -0.24557518        8 
O       0.88846285       1.47844750       0.93042200        8 
C       3.47447130       1.59527463       0.45603897        6 
C      -2.19513363       2.92544228      -0.05792108        6 
C      -0.95653155      -1.84842586       0.64058485        6 
C      -0.08091593      -1.57623570       1.85282023        6 
C       1.18974788      -1.55042013       1.43727666        6 
C       1.17394862      -1.74543721      -0.07696675        6 
C       0.00792122      -2.74271606      -0.18210719        6 
C      -1.86507951      -0.92037249      -1.53526465        6 
C       0.82609612      -0.22502439      -2.18568532        6 
H       3.16950827       2.62594375       0.26733208        1 
H      -2.25481825       3.12801167       1.01238702        1 
H       2.06573087      -1.29759892       2.01982187        1 
H       4.47488610       1.41497783       0.06797715        1 
H       3.43885603       1.40651254       1.53050073        1 
H      -1.70579778       3.75009652      -0.57181203        1 
H      -3.20123825       2.76558708      -0.45035999        1 
H       2.11990196      -2.00507638      -0.54721554        1 
H      -1.95520820      -2.22924129       0.84472478        1 
H       0.47314878      -1.09255068      -2.74293549        1 
H       0.33371674       0.66339681      -2.58786493        1 
H       1.89755317      -0.12910939      -2.35509794        1 
H      -2.85534133      -1.21596103      -1.18745940        1 
H      -1.97908120      -0.05305714      -2.18752128        1 
H      -1.45461527      -1.73195054      -2.12880515        1 
H       0.23105802      -3.68073434       0.32832830        1 
H      -0.31432261      -2.96277406      -1.19819792        1 
H      -0.45516609      -1.35748937       2.84371361        1 
