35
Lattice="0.0 0.0 0.0 0.0 0.0 0.0 0.0 0.0 0.0" Properties=species:S:1:pos:R:3:Z:I:1 pbc="F F F"
C       0.76962537       0.47614654      -0.60853358        6 
C      -0.82543540       0.60607808      -0.47656236        6 
C       1.40066693      -0.84102219      -0.11829420        6 
C      -1.61907373      -0.69651096      -0.39879318        6 
O       2.72205957      -0.62570275       0.14320175        8 
O       0.91706468      -1.93769592      -0.04542242        8 
O      -2.53223210      -0.66584280       0.60245770        8 
O      -1.50229900      -1.62552094      -1.15312196        8 
C      -3.36070764      -1.83637318       0.72376088        6 
C       3.47585457      -1.78795565       0.52303566        6 
C       1.23226971       1.58734133       0.45542193        6 
C       0.93200166       0.98417082       1.82477796        6 
C      -0.39713295       0.96967854       1.96831449        6 
C      -0.99966073       1.60120725       0.72214081        6 
C       0.10546342       2.62888690       0.38151242        6 
C       1.32142764       0.73682406      -2.01891757        6 
C      -1.47730786       1.23942792      -1.74873322        6 
H      -3.96575204      -1.97189873      -0.17460675        1 
H       3.45986034      -2.53438952      -0.27344421        1 
H      -0.97078703       0.51170722       2.76171190        1 
H      -3.99600406      -1.65448721       1.58829998        1 
H      -2.74376999      -2.72298442       0.87563442        1 
H       4.49015587      -1.43315421       0.69424850        1 
H       3.06535830      -2.23236003       1.43154958        1 
H      -2.01970799       1.96812928       0.81778370        1 
H       2.25172941       1.92535762       0.28702367        1 
H      -1.08784337       2.22890444      -1.97743470        1 
H      -1.33371565       0.59794367      -2.61752490        1 
H      -2.55334620       1.33980364      -1.58081752        1 
H       2.41010081       0.67033225      -2.00868585        1 
H       0.93866578       0.00086939      -2.72976584        1 
H       1.04951879       1.73135391      -2.37414304        1 
H       0.20605007       3.39558584       1.15123802        1 
H       0.00215678       3.11308476      -0.58927891        1 
H       1.67008378       0.53785836       2.47708813        1 
