35
Lattice="0.0 0.0 0.0 0.0 0.0 0.0 0.0 0.0 0.0" Properties=species:S:1:pos:R:3:Z:I:1 pbc="F F F"
C      -0.53904197      -0.98226858       0.21360103        6 
C      -0.68146751       0.51305915       0.76425011        6 
C       0.84584540      -1.47974767      -0.20054665        6 
C       0.44775747       1.51178863       0.45742996        6 
O       1.83931828      -0.86525382       0.47571036        8 
O       1.02795632      -2.50761264      -0.81127668        8 
O       1.05469208       1.31425280      -0.72616755        8 
O       0.68163846       2.47967784       1.14521635        8 
C       2.04480803       2.28021346      -1.10523494        6 
C       3.15141264      -1.43003010       0.32165472        6 
C      -1.65709970      -1.08208986      -0.88965748        6 
C      -1.33506974      -0.12580021      -2.02233598        6 
C      -1.52622158       1.11612738      -1.56806866        6 
C      -1.95034120       1.00927452      -0.11066039        6 
C      -2.78554018      -0.28429008      -0.19129933        6 
C      -0.86123221      -2.04656048       1.31772276        6 
C      -1.00062328       0.62927260       2.25969014        6 
H       1.60014201       3.27293277      -1.19453944        1 
H       3.47169725      -1.36851883      -0.71979504        1 
H      -1.30436119       2.04229552      -2.08073171        1 
H       2.42252774       1.94237288      -2.06831735        1 
H       2.84776187       2.31513558      -0.36703922        1 
H       3.80041075      -0.83164017       0.95745942        1 
H       3.15760567      -2.47518355       0.63533283        1 
H      -2.41764209       1.89278770       0.32321118        1 
H      -1.86409394      -2.11152422      -1.17601631        1 
H      -1.92079812       0.10696915       2.51643240        1 
H      -0.19188539       0.22591731       2.87246281        1 
H      -1.11665077       1.67932804       2.52401607        1 
H      -0.84117212      -3.03740120       0.86278990        1 
H      -0.12198978      -2.02575543       2.12055347        1 
H      -1.84261131      -1.89696725       1.76098343        1 
H      -3.66030007      -0.16736062      -0.83234399        1 
H      -3.10228436      -0.67875443       0.77310042        1 
H      -0.92773844      -0.42269339      -2.97938526        1 
