35
Lattice="0.0 0.0 0.0 0.0 0.0 0.0 0.0 0.0 0.0" Properties=species:S:1:pos:R:3:Z:I:1 pbc="F F F"
C       0.76158405      -0.43768058      -0.82079858        6 
C       0.43591360       1.03037544      -0.19900679        6 
C      -0.37533528      -1.47098890      -0.73695755        6 
C      -0.93122724       1.13996110       0.49461238        6 
O      -0.75746064      -1.76740119       0.51141370        8 
O      -0.85508400      -2.01880706      -1.70530680        8 
O      -1.84410084       1.73035672      -0.31848899        8 
O      -1.23611794       0.70233474       1.57445906        8 
C      -3.18769822       1.80223643       0.18719826        6 
C      -1.83643787      -2.70654111       0.64543816        6 
C       2.04062816      -0.86486058       0.03063515        6 
C       1.67220878      -1.05056450       1.49148127        6 
C       1.40686058       0.15614116       1.99590864        6 
C       1.60337681       1.16762327       0.88043857        6 
C       2.77343594       0.49304684       0.12832821        6 
C       1.14705999      -0.38025302      -2.31273073        6 
C       0.56480852       2.17605476      -1.22380700        6 
H      -3.57255190       0.80192511       0.39321823        1 
H      -1.54742944      -3.68278328       0.25225998        1 
H       1.01311307       0.38456433       2.97441431        1 
H      -3.76755275       2.28007790      -0.59971200        1 
H      -3.22310544       2.39343641       1.10355558        1 
H      -2.03617248      -2.76104983       1.71306127        1 
H      -2.71727464      -2.35294137       0.10701071        1 
H       1.74062916       2.20365866       1.19161608        1 
H       2.57406376      -1.68988550      -0.44247358        1 
H       1.57861834       2.24948489      -1.61307972        1 
H      -0.11950540       2.06055561      -2.06257709        1 
H       0.32762382       3.12505464      -0.73822386        1 
H       1.41280912      -1.38109936      -2.65511277        1 
H       0.31520928      -0.04259985      -2.93027987        1 
H       1.99791371       0.27418033      -2.48766866        1 
H       3.67078917       0.42703036       0.74387263        1 
H       3.02743913       0.94888895      -0.82778157        1 
H       1.53633348      -2.00617127       1.97682184        1 
