35
Lattice="0.0 0.0 0.0 0.0 0.0 0.0 0.0 0.0 0.0" Properties=species:S:1:pos:R:3:Z:I:1 pbc="F F F"
C       1.04884406       0.60299796      -0.43225160        6 
C      -0.55301524       0.73737299      -0.57977439        6 
C       1.54440272      -0.85126133      -0.37394020        6 
C      -1.31581189      -0.57424448      -0.39484195        6 
O       1.46985562      -1.39875037       0.85498065        8 
O       1.95938819      -1.45775016      -1.33038323        8 
O      -2.52504545      -0.36030471       0.17293290        8 
O      -0.97777600      -1.65739678      -0.80373592        8 
C      -3.38310783      -1.51018969       0.28035986        6 
C       1.75673043      -2.80734574       0.92205018        6 
C       1.30982834       1.46765075       0.86750704        6 
C       0.60136768       0.85191485       2.06601315        6 
C      -0.71001206       1.04347893       1.90420499        6 
C      -0.89881289       1.76859116       0.57806123        6 
C       0.35741119       2.65701902       0.59235381        6 
C       1.82080654       1.22171550      -1.62025850        6 
C      -1.02105138       1.26264932      -1.95442990        6 
H      -3.57817584      -1.93607185      -0.70512918        1 
H       2.78028395      -3.00814700       0.60273003        1 
H      -1.51448929       0.66703777       2.51997244        1 
H      -4.30383924      -1.14348013       0.72911384        1 
H      -2.92429460      -2.27106823       0.91373458        1 
H       1.61868217      -3.08156949       1.96617884        1 
H       1.06263032      -3.35365304       0.28206298        1 
H      -1.86109624       2.25494521       0.42849713        1 
H       2.36787779       1.69151240       1.00396116        1 
H      -0.62649819       2.25933842      -2.14904879        1 
H      -0.70821251       0.60053979      -2.76375562        1 
H      -2.11179846       1.32711287      -1.96664188        1 
H       2.89302000       1.16490823      -1.41806232        1 
H       1.63869756       0.66566716      -2.53802425        1 
H       1.56994120       2.26697661      -1.78626807        1 
H       0.34172974       3.37368785       1.41465966        1 
H       0.54538697       3.18920565      -0.33948723        1 
H       1.09319835       0.28953709       2.84550151        1 
