35
Lattice="0.0 0.0 0.0 0.0 0.0 0.0 0.0 0.0 0.0" Properties=species:S:1:pos:R:3:Z:I:1 pbc="F F F"
C       0.36142006      -0.90939406       0.42940373        6 
C      -1.08355436      -0.24822715       0.60713742        6 
C       1.55703886       0.02885976       0.55282032        6 
C      -1.27794872       1.25035426       0.31024348        6 
O       2.55724543      -0.34743207      -0.27817553        8 
O       1.64474489       0.96013170       1.31162371        8 
O      -0.24396389       1.86101085      -0.27909807        8 
O      -2.35816888       1.78512002       0.43801628        8 
C      -0.47476685       3.20198732      -0.73828512        6 
C       3.76206304       0.43532223      -0.20623558        6 
C       0.22740664      -1.73411579      -0.90381561        6 
C      -0.04688483      -0.77836714      -2.05115316        6 
C      -1.29499796      -0.32359188      -1.90629004        6 
C      -1.85953024      -0.94192249      -0.63408865        6 
C      -1.19031568      -2.32425109      -0.70696613        6 
C       0.69564897      -1.90986913       1.58814140        6 
C      -1.79257494      -0.56161653       1.93076555        6 
H      -1.25084933       3.21241345      -1.50648596        1 
H       4.19291232       0.38693841       0.79512711        1 
H      -1.78969270       0.44131416      -2.49050367        1 
H       0.47685565       3.53297261      -1.14820388        1 
H      -0.78138469       3.84262703       0.08897751        1 
H       4.43803224      -0.00486996      -0.93637573        1 
H       3.55359931       1.47698411      -0.45524841        1 
H      -2.93939400      -0.89262204      -0.50712441        1 
H       1.04910000      -2.43242570      -1.04833086        1 
H      -1.93316558      -1.63409029       2.06648527        1 
H      -1.22878317      -0.17771782       2.78389831        1 
H      -2.77254511      -0.08550240       1.93299557        1 
H       1.66165892      -2.37848135       1.38408043        1 
H       0.76544788      -1.39069386       2.54423272        1 
H      -0.04350832      -2.70197149       1.68178201        1 
H      -1.52366643      -2.89225812      -1.57685341        1 
H      -1.31411326      -2.93632801       0.18578665        1 
H       0.68843228      -0.46547833      -2.77964741        1 
