35
Lattice="0.0 0.0 0.0 0.0 0.0 0.0 0.0 0.0 0.0" Properties=species:S:1:pos:R:3:Z:I:1 pbc="F F F"
C       0.75621882       0.32955979      -0.64738434        6 
C      -0.76227529       0.78438379      -0.38014675        6 
C       1.05699152      -1.12107604      -0.29054478        6 
C      -1.60101207      -0.24509204       0.40140061        6 
O       2.37117223      -1.29495996      -0.02761235        8 
O       0.26160111      -2.02758213      -0.27606871        8 
O      -2.66922167      -0.66890052      -0.30889852        8 
O      -1.36533843      -0.65213327       1.51155971        8 
C      -3.44277370      -1.71751241       0.29787133        6 
C       2.77598254      -2.64366076       0.27289932        6 
C       1.60372616       1.39565686       0.14938867        6 
C       1.36258356       1.18429747       1.63187763        6 
C       0.10810090       1.56578268       1.88778957        6 
C      -0.50526324       2.04305497       0.57594066        6 
C       0.74841917       2.65982297      -0.08200064        6 
C       1.14450985       0.38414279      -2.15284376        6 
C      -1.52119339       1.24338755      -1.63746168        6 
H      -2.81310008      -2.59159192       0.46973798        1 
H       2.59827473      -3.29550367      -0.58439726        1 
H      -0.43242688       1.45503109       2.81575882        1 
H      -4.23221562      -1.94461204      -0.41603924        1 
H      -3.86707173      -1.38524539       1.24671104        1 
H       3.83934409      -2.58486064       0.49452081        1 
H       2.22180822      -3.02372076       1.13203299        1 
H      -1.38975631       2.67481928       0.66179372        1 
H       2.64216594       1.42333695      -0.17552436        1 
H      -1.01342825       2.06770769      -2.13745135        1 
H      -1.65242792       0.43393599      -2.35534430        1 
H      -2.51744014       1.58952543      -1.35884311        1 
H       2.19110407       0.09272870      -2.26142847        1 
H       0.53615456      -0.30048322      -2.74666759        1 
H       1.03159186       1.38642783      -2.56145732        1 
H       1.12529077       3.51769848       0.47589094        1 
H       0.62248895       2.94162983      -1.12780331        1 
H       2.05032970       0.69106878       2.30471368        1 
