35
Lattice="0.0 0.0 0.0 0.0 0.0 0.0 0.0 0.0 0.0" Properties=species:S:1:pos:R:3:Z:I:1 pbc="F F F"
C      -0.55098812       0.98928552       0.28265978        6 
C       0.79957540       0.25762686       0.79660927        6 
C      -1.47605607      -0.00829542      -0.42637816        6 
C       0.74163551      -1.24874286       0.54654710        6 
O      -2.65174458      -0.16925438       0.20957770        8 
O      -1.20873614      -0.59994031      -1.44642619        8 
O       1.71252839      -1.70951036      -0.25517512        8 
O      -0.05956213      -1.97357170       1.09306844        8 
C       1.66941630      -3.11801626      -0.55332243        6 
C      -3.53193369      -1.16623710      -0.33871318        6 
C       0.04811927       2.04607122      -0.74021260        6 
C       0.68260317       1.33182129      -1.92199018        6 
C       1.80114900       0.74825683      -1.48683095        6 
C       1.92040005       1.04491680      -0.00090519        6 
C       1.32768374       2.47256541       0.01571960        6 
C      -1.32088590       1.72497304       1.39445530        6 
C       1.04262380       0.38310091       2.31556455        6 
H       1.79827508      -3.70652259       0.35619791        1 
H      -3.04859100      -2.14373083      -0.31458599        1 
H       2.44877829       0.08204798      -2.03653216        1 
H       2.49194567      -3.29179806      -1.24380477        1 
H       0.71628940      -3.37006765      -1.01928194        1 
H      -4.41136617      -1.15733525       0.30186143        1 
H      -3.80136827      -0.91835907      -1.36644566        1 
H       2.90945889       0.90538266       0.43452213        1 
H      -0.67422303       2.82626983      -0.98265655        1 
H       1.13869053       1.42280423       2.62393335        1 
H       0.23941832      -0.08317249       2.88549075        1 
H       1.97491454      -0.12775581       2.57303701        1 
H      -2.19644932       2.22094078       0.97105464        1 
H      -1.67897938       1.04136559       2.16338988        1 
H      -0.70621351       2.48754424       1.86991435        1 
H       1.92976367       3.17387778      -0.56292633        1 
H       1.15560827       2.88491038       1.01012182        1 
H       0.23329721       1.23880331      -2.89993958        1 
