35
Lattice="0.0 0.0 0.0 0.0 0.0 0.0 0.0 0.0 0.0" Properties=species:S:1:pos:R:3:Z:I:1 pbc="F F F"
C      -0.42225791      -1.03427713       0.28639514        6 
C      -0.79963454       0.46697412       0.75918925        6 
C       0.96627799      -1.21833259      -0.34388335        6 
C       0.23339884       1.58306221       0.54899567        6 
O       1.90797607      -1.36829208       0.61950374        8 
O       1.24487231      -1.18173403      -1.51465584        8 
O       1.05339055       1.37025848      -0.48795867        8 
O       0.27414030       2.59152882       1.21629147        8 
C       1.98348892       2.41488722      -0.81440226        6 
C       3.26680921      -1.43677705       0.15855166        6 
C      -1.53892314      -1.28734550      -0.82238730        6 
C      -1.30942430      -0.34649436      -1.99597246        6 
C      -1.63279368       0.88551888      -1.59432493        6 
C      -2.07457545       0.78575878      -0.14698687        6 
C      -2.76004896      -0.59726441      -0.17607018        6 
C      -0.56242671      -2.09866392       1.39702453        6 
C      -1.20178647       0.54111932       2.24603820        6 
H       1.44964501       3.32694763      -1.08631886        1 
H       3.52820343      -0.52343846      -0.37892388        1 
H      -1.49979147       1.81027277      -2.13965693        1 
H       2.54950843       2.03527982      -1.66240452        1 
H       2.63982633       2.62294836       0.03190471        1 
H       3.87435890      -1.54209928       1.05494268        1 
H       3.40657964      -2.29272341      -0.50347708        1 
H      -2.64189415       1.62689931       0.24981835        1 
H      -1.63508421      -2.34394306      -1.07385800        1 
H      -2.00977491      -0.14817069       2.48269998        1 
H      -0.35742602       0.31710338       2.90096661        1 
H      -1.53351706       1.55220284       2.47838715        1 
H      -0.29108492      -3.07699382       0.99124593        1 
H       0.09563761      -1.89977240       2.24078860        1 
H      -1.58542970      -2.16947948       1.76221439        1 
H      -3.63118979      -0.60531978      -0.83218481        1 
H      -3.04394817      -0.98573137       0.80193077        1 
H      -0.86628055      -0.63758578      -2.93553407        1 
