35
Lattice="0.0 0.0 0.0 0.0 0.0 0.0 0.0 0.0 0.0" Properties=species:S:1:pos:R:3:Z:I:1 pbc="F F F"
C       0.87360909       0.57108168      -0.66648237        6 
C      -0.71619084       0.70334488      -0.36845015        6 
C       1.50742464      -0.83769681      -0.59641850        6 
C      -1.43788671      -0.60371157      -0.00937891        6 
O       1.65919438      -1.32609122       0.63966675        8 
O       2.00542637      -1.37764867      -1.56051274        8 
O      -2.75798101      -0.53678217      -0.32007447        8 
O      -0.97724133      -1.56495084       0.55255134        8 
C      -3.54764078      -1.68062997       0.04710895        6 
C       2.17783473      -2.65968121       0.74000813        6 
C       1.45805061       1.50778559       0.49654299        6 
C       1.16937214       0.90230401       1.86262848        6 
C      -0.14267208       1.00680704       2.08542828        6 
C      -0.74969168       1.69331264       0.87703629        6 
C       0.40982573       2.64534622       0.50768764        6 
C       1.29466476       1.13903715      -2.03515094        6 
C      -1.47571515       1.36279141      -1.54658819        6 
H      -3.18176829      -2.57597306      -0.45782547        1 
H       3.16383008      -2.73198936       0.27843118        1 
H      -0.70448302       0.58552331       2.90786662        1 
H      -4.56035903      -1.44670170      -0.27495990        1 
H      -3.51399200      -1.84086618       1.12592019        1 
H       2.23318717      -2.86716669       1.80673247        1 
H       1.49514165      -3.35938302       0.25527945        1 
H      -1.73895283       2.13001996       1.01242551        1 
H       2.49527914       1.78402951       0.30643020        1 
H      -1.02384737       2.30706954      -1.83832387        1 
H      -1.49972749       0.71442229      -2.42456123        1 
H      -2.50624481       1.56018278      -1.25780669        1 
H       2.37582806       1.04774319      -2.14392390        1 
H       0.84474502       0.58403216      -2.85767429        1 
H       1.03484211       2.18981050      -2.13788130        1 
H       0.60283735       3.37151547       1.29748339        1 
H       0.29024244       3.17056366      -0.43956935        1 
H       1.89701566       0.39384716       2.47580976        1 
