35
Lattice="0.0 0.0 0.0 0.0 0.0 0.0 0.0 0.0 0.0" Properties=species:S:1:pos:R:3:Z:I:1 pbc="F F F"
C       1.09955214       0.30133151      -0.30995822        6 
C      -0.43863972       0.56692101      -0.63156052        6 
C       1.53655569      -1.09021313       0.16321258        6 
C      -1.43658860      -0.27737659       0.17800190        6 
O       0.65376551      -2.04782346      -0.18080476        8 
O       2.68077529      -1.36001020       0.45275098        8 
O      -2.68734721      -0.15560045      -0.34239661        8 
O      -1.22652735      -0.91482587       1.17681519        8 
C      -3.73164636      -0.84032432       0.36824463        6 
C       1.09176174      -3.40721891      -0.03296095        6 
C       1.51685767       1.52150237       0.58281767        6 
C       0.70220015       1.51652812       1.86421233        6 
C      -0.55115973       1.85579260       1.54764018        6 
C      -0.60374892       2.04168738       0.03526529        6 
C       0.78969354       2.65908866      -0.18266713        6 
C       1.96716879       0.35342973      -1.62097073        6 
C      -0.81360510       0.58025105      -2.11809425        6 
H      -3.53551049      -1.91337482       0.39650331        1 
H       1.34341008      -3.61782595       1.00705847        1 
H      -1.41332000       1.84816190       2.20105126        1 
H      -4.64399653      -0.63368591      -0.18799122        1 
H      -3.81302959      -0.46674825       1.39043750        1 
H       0.24817959      -4.01731396      -0.34972106        1 
H       1.96444402      -3.60039307      -0.66023632        1 
H      -1.46909278       2.57050034      -0.36224495        1 
H       2.59641326       1.59646425       0.69933515        1 
H      -0.21328289       1.29729161      -2.67611887        1 
H      -0.67315822      -0.40572742      -2.56764377        1 
H      -1.85973531       0.85658215      -2.23345310        1 
H       3.01801029       0.28746043      -1.34161647        1 
H       1.73998593      -0.48839619      -2.27835234        1 
H       1.82116805       1.26653963      -2.19145267        1 
H       0.88966945       3.61958575       0.32424677        1 
H       1.07765493       2.77911974      -1.22582876        1 
H       1.06899700       1.18443262       2.82587334        1 
