35
Lattice="0.0 0.0 0.0 0.0 0.0 0.0 0.0 0.0 0.0" Properties=species:S:1:pos:R:3:Z:I:1 pbc="F F F"
C       0.74363312      -0.62095174      -0.63404304        6 
C       0.42367244       0.95347123      -0.43306094        6 
C      -0.19397341      -1.62143994       0.04425817        6 
C      -0.87277407       1.23594553       0.33603504        6 
O      -1.49532189      -1.34106212      -0.16745714        8 
O       0.17401920      -2.62199429       0.61071263        8 
O      -1.92358968       1.41209385      -0.49296756        8 
O      -0.96926971       1.36325167       1.53315951        8 
C      -3.19463647       1.61790665       0.13904819        6 
C      -2.44588745      -2.28629219       0.35624015        6 
C       2.17675170      -0.74861734       0.02303811        6 
C       2.00452496      -0.57418047       1.52505800        6 
C       1.70423574       0.70842991       1.74464986        6 
C       1.69046477       1.41375793       0.39509560        6 
C       2.80106616       0.61538512      -0.32874822        6 
C       0.76378580      -1.06480768      -2.11358776        6 
C       0.36446919       1.74594167      -1.75867626        6 
H      -3.44371893       0.76716320       0.77587732        1 
H      -2.38481143      -2.32166815       1.44482943        1 
H       1.41595386       1.16675130       2.67812453        1 
H      -3.91227373       1.71012376      -0.67394770        1 
H      -3.18387106       2.52508761       0.74517726        1 
H      -3.42045076      -1.92193808       0.03783587        1 
H      -2.25757246      -3.28168605      -0.04832672        1 
H       1.78697596       2.49936736       0.42298978        1 
H       2.70007703      -1.64676914      -0.30005303        1 
H       1.30020614       1.68346361      -2.31140314        1 
H      -0.44113839       1.40326479      -2.40485839        1 
H       0.18241908       2.80117244      -1.53964236        1 
H       0.99286193      -2.13214904      -2.16929783        1 
H      -0.20109989      -0.89691995      -2.59442541        1 
H       1.52941828      -0.53258618      -2.67760009        1 
H       3.77668934       0.75137648       0.13926421        1 
H       2.89039172       0.81448597      -1.39770364        1 
H       2.00353431      -1.38569821       2.23776512        1 
