35
Lattice="0.0 0.0 0.0 0.0 0.0 0.0 0.0 0.0 0.0" Properties=species:S:1:pos:R:3:Z:I:1 pbc="F F F"
C       0.81895547       0.45001379      -0.47319176        6 
C      -0.77869000       0.48064920      -0.55289257        6 
C       1.48134324      -0.91717282      -0.29010420        6 
C      -1.52463294      -0.66429307       0.15518318        6 
O       2.78984143      -0.75481514       0.04581167        8 
O       0.97346953      -2.00179413      -0.38583512        8 
O      -2.81386088      -0.72752951      -0.27907591        8 
O      -1.11437935      -1.38532266       1.02397847        8 
C      -3.63693124      -1.71797880       0.35821097        6 
C       3.53651939      -1.96979967       0.23293244        6 
C       1.16234970       1.56254614       0.58515650        6 
C       0.57952263       1.17477025       1.93146295        6 
C      -0.74712756       1.30761257       1.84891417        6 
C      -1.07326425       1.74431116       0.42572977        6 
C       0.14258170       2.64912903       0.15850141        6 
C       1.46781340       0.86874626      -1.84018033        6 
C      -1.35755948       0.73274822      -1.95171222        6 
H      -3.21321208      -2.71371900       0.21993022        1 
H       3.55591398      -2.55329088      -0.68933765        1 
H      -1.47889302       1.01392019       2.58908075        1 
H      -4.60799917      -1.64297564      -0.12755690        1 
H      -3.72674143      -1.51522776       1.42701229        1 
H       4.54127952      -1.65427973       0.50649357        1 
H       3.09152029      -2.57284275       1.02576420        1 
H      -2.06699059       2.15699312       0.25663639        1 
H       2.21691757       1.82888404       0.57625293        1 
H      -0.94685412       1.63691417      -2.39952681        1 
H      -1.15157477      -0.10487947      -2.62250653        1 
H      -2.43763885       0.84898911      -1.89326795        1 
H       2.54988341       0.91448346      -1.71630082        1 
H       1.24808767       0.13736802      -2.62081581        1 
H       1.13233333       1.84099174      -2.19226853        1 
H       0.16158344       3.51142871       0.82562289        1 
H       0.23314520       2.99161701      -0.87152480        1 
H       1.14647369       0.75940817       2.75331696        1 
