35
Lattice="0.0 0.0 0.0 0.0 0.0 0.0 0.0 0.0 0.0" Properties=species:S:1:pos:R:3:Z:I:1 pbc="F F F"
C       0.90554979       0.70480159      -0.46644524        6 
C      -0.70497062       0.60497549      -0.59284779        6 
C       1.61828945      -0.65201543      -0.40690782        6 
C      -1.30374460      -0.78900275      -0.36305860        6 
O       2.01903377      -0.99395815       0.83728269        8 
O       1.80283508      -1.35822798      -1.36472965        8 
O      -2.44825517      -0.71895090       0.36160022        8 
O      -0.94004472      -1.81359739      -0.88152200        8 
C      -3.18793574      -1.94648497       0.48140386        6 
C       2.61461139      -2.29940974       0.95789865        6 
C       1.07475803       1.63587263       0.79011946        6 
C       0.49387447       0.95746687       2.02292472        6 
C      -0.83450681       0.95249633       1.89109465        6 
C      -1.16098105       1.60722999       0.55472541        6 
C      -0.04522602       2.66888049       0.51363573        6 
C       1.56013499       1.38647144      -1.69725522        6 
C      -1.26344807       1.02451491      -1.96719072        6 
H      -3.48111230      -2.31289060      -0.50408303        1 
H       3.53442140      -2.35661753       0.37373213        1 
H      -1.56132835       0.48292277       2.53756023        1 
H      -4.06519432      -1.69932901       1.07559064        1 
H      -2.58779287      -2.70946131       0.97945246        1 
H       2.82467506      -2.42567004       2.01805976        1 
H       1.91915810      -3.06237702       0.60534794        1 
H      -2.18607853       1.94927889       0.42546189        1 
H       2.09213391       2.01291524       0.89067527        1 
H      -1.01740390       2.06113264      -2.19858461        1 
H      -0.87609723       0.38585048      -2.76238202        1 
H      -2.35311996       0.93682551      -1.96006331        1 
H       2.63686727       1.47210138      -1.52684913        1 
H       1.41839248       0.78642237      -2.59425929        1 
H       1.17316639       2.38718066      -1.87568468        1 
H      -0.14466034       3.39651678       1.32006970        1 
H       0.04066515       3.19968743      -0.43479448        1 
H       1.08037825       0.49196222       2.80066952        1 
