35
Lattice="0.0 0.0 0.0 0.0 0.0 0.0 0.0 0.0 0.0" Properties=species:S:1:pos:R:3:Z:I:1 pbc="F F F"
C       0.72133644      -0.59590574      -0.75409677        6 
C       0.62083742       0.95039506      -0.30817726        6 
C      -0.56088687      -1.40731953      -0.53773185        6 
C      -0.71037453       1.35428359       0.31808724        6 
O      -1.03216574      -1.34431645       0.72402610        8 
O      -1.11040082      -2.05472784      -1.39726031        8 
O      -1.73237995       1.13510153      -0.54154032        8 
O      -0.85852006       1.87794733       1.39388207        8 
C      -3.04447650       1.49092261      -0.07517805        6 
C      -2.26474367      -2.04101085       0.97029842        6 
C       1.92188351      -1.09758230       0.16977629        6 
C       1.51805661      -1.02629941       1.63392993        6 
C       1.44645329       0.26311695       1.97269437        6 
C       1.80063223       1.07488189       0.73786731        6 
C       2.84948427       0.13785166       0.10239468        6 
C       1.09890203      -0.79092279      -2.23423588        6 
C       0.83153440       1.95294024      -1.46630927        6 
H      -3.26946743       0.97203073       0.85784970        1 
H      -2.13693380      -3.11435592       0.82088748        1 
H       1.08287649       0.68132223       2.89918203        1 
H      -3.72705866       1.18003716      -0.86328502        1 
H      -3.11353137       2.56742309       0.08978632        1 
H      -2.51626988      -1.82431135       2.00632120        1 
H      -3.04481910      -1.68045590       0.29772603        1 
H       2.08815807       2.11064384       0.91285960        1 
H       2.32498828      -2.05015270      -0.17507891        1 
H       1.83300839       1.87230585      -1.88785207        1 
H       0.10378560       1.80561672      -2.26332658        1 
H       0.71567433       2.97183072      -1.08638424        1 
H       1.21873233      -1.85493999      -2.44178595        1 
H       0.31749423      -0.42167397      -2.89856754        1 
H       2.03183719      -0.28938806      -2.48288581        1 
H       3.73185234       0.02182178       0.73264872        1 
H       3.16520698       0.41819584      -0.90301384        1 
H       1.23025565      -1.87810035       2.23387069        1 
