35
Lattice="0.0 0.0 0.0 0.0 0.0 0.0 0.0 0.0 0.0" Properties=species:S:1:pos:R:3:Z:I:1 pbc="F F F"
C      -0.38024544      -0.95208713       0.59440672        6 
C      -1.11064310       0.47865306       0.41384142        6 
C       1.15066697      -0.84796633       0.68013164        6 
C      -0.17872506       1.68967942       0.27921900        6 
O       1.79288710      -1.26852441      -0.42370342        8 
O       1.73491762      -0.56152808       1.69991562        8 
O       0.88770564       1.45664747      -0.51054336        8 
O      -0.37639965       2.76347222       0.79622906        8 
C       1.79967704       2.55359734      -0.68978911        6 
C       3.22587827      -1.19142192      -0.38392217        6 
C      -0.91732700      -1.73448667      -0.68204982        6 
C      -0.38824790      -1.09242024      -1.95594972        6 
C      -0.99823181       0.08583528      -2.09821525        6 
C      -1.94650356       0.24948120      -0.92606764        6 
C      -2.37629368      -1.22392510      -0.73711123        6 
C      -0.79088780      -1.71020624       1.87455188        6 
C      -2.08253162       0.81345196       1.56141429        6 
H       1.28198630       3.41622858      -1.11158407        1 
H       3.62564376      -1.82525360       0.40902705        1 
H      -0.79548080       0.84604264      -2.84004239        1 
H       2.55712968       2.18735898      -1.37980025        1 
H       2.24804979       2.83376760       0.26438920        1 
H       3.56209718      -1.53760403      -1.35927462        1 
H       3.54224449      -0.16141615      -0.21181902        1 
H      -2.73272633       0.99578829      -1.03885756        1 
H      -0.76954256      -2.81087547      -0.59485952        1 
H      -2.85215026       0.05147599       1.66763911        1 
H      -1.55799712       0.91099095       2.51271788        1 
H      -2.56937613       1.76727931       1.35998912        1 
H      -0.27737355      -2.67507927       1.89936127        1 
H      -0.50379473      -1.16163693       2.77000466        1 
H      -1.86150134      -1.90464315       1.90671245        1 
H      -2.91237060      -1.60694232      -1.60629246        1 
H      -2.96738318      -1.41423067       0.15886354        1 
H       0.40939504      -1.49561442      -2.56042784        1 
