35
Lattice="0.0 0.0 0.0 0.0 0.0 0.0 0.0 0.0 0.0" Properties=species:S:1:pos:R:3:Z:I:1 pbc="F F F"
C       0.61937322      -0.75368312      -0.55898416        6 
C       0.53304260       0.86493651      -0.49007137        6 
C      -0.43043499      -1.59165815       0.18368756        6 
C      -0.63890484       1.50083567       0.26753187        6 
O      -1.68499655      -1.35377008      -0.23683636        8 
O      -0.16483925      -2.48621444       0.95254846        8 
O      -1.81440174       1.31334232      -0.35914557        8 
O      -0.52483506       2.23557821       1.22117911        8 
C      -2.96078983       1.94505519       0.23095311        6 
C      -2.71350993      -2.19837368       0.30614672        6 
C       2.02843151      -1.01769218       0.10844930        6 
C       1.91519908      -0.64740176       1.58217047        6 
C       1.82743891       0.68343818       1.65371764        6 
C       1.88871061       1.22042742       0.23114516        6 
C       2.84061190       0.18579582      -0.40659086        6 
C       0.58298204      -1.31519264      -2.00058336        6 
C       0.48735957       1.53687133      -1.88543520        6 
H      -3.13131552       1.56328642       1.23917716        1 
H      -2.74538500      -2.11576119       1.39351901        1 
H       1.63427504       1.28898801       2.52641778        1 
H      -3.79645899       1.69242554      -0.41861303        1 
H      -2.82445059       3.02677050       0.27825493        1 
H      -3.64184829      -1.83888000      -0.13321189        1 
H      -2.53799716      -3.24030831       0.03249808        1 
H       2.14430231       2.27441455       0.12948916        1 
H       2.40579529      -2.01616672      -0.10684853        1 
H       1.37284079       1.30558927      -2.47610197        1 
H      -0.39642368       1.23839519      -2.44729431        1 
H       0.45338289       2.62255559      -1.75891201        1 
H       0.67932701      -2.40391021      -1.96764429        1 
H      -0.35594570      -1.07353668      -2.49865788        1 
H       1.40623158      -0.93120290      -2.60195727        1 
H       3.84072343       0.22347949       0.02694133        1 
H       2.92337847       0.24863565      -1.49313562        1 
H       1.80997769      -1.36416611       2.38290181        1 
