35
Lattice="0.0 0.0 0.0 0.0 0.0 0.0 0.0 0.0 0.0" Properties=species:S:1:pos:R:3:Z:I:1 pbc="F F F"
C       0.74289226      -0.62860313       0.50871139        6 
C      -0.86516768      -0.68553012       0.57052508        6 
C       1.30800176       0.75575831       0.18807632        6 
C      -1.56673741       0.68697089       0.52053221        6 
O       2.66062182       0.72107791       0.15649987        8 
O       0.68689047       1.75623256      -0.07077521        8 
O      -1.94369186       1.05935106      -0.71522160        8 
O      -1.90476353       1.29034118       1.51205106        8 
C      -2.55155633       2.35608335      -0.81743823        6 
C       3.31281776       1.95131921      -0.20586950        6 
C       1.07536391      -1.61209015      -0.69859864        6 
C       0.62454709      -0.93254899      -1.97813364        6 
C      -0.71066631      -0.92438439      -1.96892815        6 
C      -1.17270039      -1.60996912      -0.69039077        6 
C      -0.04490828      -2.65900403      -0.54590133        6 
C       1.42286462      -1.12580558       1.80195421        6 
C      -1.41982408      -1.36377279       1.84134027        6 
H      -3.45859240       2.40629703      -0.21307209        1 
H       3.06131571       2.74041846       0.50414885        1 
H      -1.36788418      -0.44524600      -2.67780468        1 
H      -2.78506291       2.48506189      -1.87268201        1 
H      -1.84752304       3.11952397      -0.48343599        1 
H       4.37817456       1.73350531      -0.17685863        1 
H       3.01028321       2.26214972      -1.20734015        1 
H      -2.19922207      -1.97660128      -0.69260333        1 
H       2.10612063      -1.96123219      -0.66861732        1 
H      -1.03469336      -2.37277404       1.97127879        1 
H      -1.19556319      -0.78155926       2.73364030        1 
H      -2.50752953      -1.42914926       1.76265392        1 
H       2.50477541      -1.11994299       1.67479404        1 
H       1.17679747      -0.48684027       2.65309454        1 
H       1.11739831      -2.14277424       2.04459704        1 
H      -0.04330894      -3.37971290      -1.36565086        1 
H      -0.03670188      -3.19939898       0.40067896        1 
H       1.28027518      -0.44935640      -2.69030552        1 
