35
Lattice="0.0 0.0 0.0 0.0 0.0 0.0 0.0 0.0 0.0" Properties=species:S:1:pos:R:3:Z:I:1 pbc="F F F"
C      -0.57805817      -0.92799827       0.53102895        6 
C      -0.96718008       0.65260715       0.43256213        6 
C       0.90896370      -1.34369538       0.63272703        6 
C       0.15165112       1.71312023       0.44270873        6 
O       1.63861221      -1.12278479      -0.46975879        8 
O       1.34759877      -1.99094698       1.55873079        8 
O       1.19945449       1.43164759      -0.34233461        8 
O       0.06659440       2.76163658       1.04295998        8 
C       2.22200114       2.43736686      -0.42704881        6 
C       2.99922711      -1.57674802      -0.43185702        6 
C      -1.20789807      -1.47048780      -0.84444746        6 
C      -0.47382965      -0.87618541      -2.03435242        6 
C      -0.79309039       0.41817004      -2.10092995        6 
C      -1.74987684       0.70651149      -0.96122513        6 
C      -2.50702422      -0.63873006      -0.91439760        6 
C      -1.27185944      -1.64330692       1.70821173        6 
C      -1.93936974       1.09114551       1.55012691        6 
H       1.82038135       3.35678624      -0.85655756        1 
H       3.04495368      -2.65503039      -0.27031753        1 
H      -0.37851861       1.16204857      -2.76683973        1 
H       2.98558630       2.01328335      -1.07614311        1 
H       2.63097224       2.65453576       0.56061459        1 
H       3.41543809      -1.31499025      -1.40280929        1 
H       3.54662877      -1.07427064       0.36766752        1 
H      -2.34620851       1.61481514      -1.04725119        1 
H      -1.30942218      -2.55608673      -0.83726609        1 
H      -2.85190611       0.50080004       1.54927317        1 
H      -1.48080700       1.01589864       2.53690338        1 
H      -2.21013865       2.13518093       1.40094228        1 
H      -1.04762919      -2.70927642       1.66457405        1 
H      -0.91198837      -1.28125172       2.67095233        1 
H      -2.35195793      -1.52564651       1.67477487        1 
H      -3.06152802      -0.82408595      -1.83530621        1 
H      -3.17681662      -0.76121134      -0.06489633        1 
H       0.24888090      -1.40326233      -2.63873735        1 
