35
Lattice="0.0 0.0 0.0 0.0 0.0 0.0 0.0 0.0 0.0" Properties=species:S:1:pos:R:3:Z:I:1 pbc="F F F"
C       0.90589901       0.33721828      -0.75920674        6 
C      -0.55441719       0.88517846      -0.30567452        6 
C       1.09040016      -1.19096495      -0.67669736        6 
C      -1.50143421      -0.19922702       0.22709824        6 
O       1.38346849      -1.65644750       0.54206374        8 
O       1.12270325      -1.89993704      -1.65939058        8 
O      -2.76214450      -0.05187082      -0.24664303        8 
O      -1.22038897      -1.07150331       1.01180997        8 
C      -3.73046796      -1.00100573       0.23224733        6 
C       1.50051583      -3.08239831       0.66754262        6 
C       1.84820939       1.13073229       0.26082396        6 
C       1.59508950       0.67922373       1.69086247        6 
C       0.38922398       1.12554245       2.04934394        6 
C      -0.17621410       1.89354378       0.86963963        6 
C       1.12953338       2.49858542       0.30554592        6 
C       1.28828709       0.71400462      -2.20349854        6 
C      -1.26025107       1.67590324      -1.42897349        6 
H      -3.46128709      -2.01139736      -0.08002389        1 
H       2.29375855      -3.46466710       0.02326093        1 
H      -0.15106426       0.89495865       2.95666943        1 
H      -4.67426048      -0.70116637      -0.21854568        1 
H      -3.79561496      -0.96868055       1.32077712        1 
H       1.73177801      -3.26070828       1.71544080        1 
H       0.55541262      -3.55831277       0.40236486        1 
H      -0.99604289       2.57994342       1.08276454        1 
H       2.88822761       1.12251411      -0.06604792        1 
H      -0.63325158       2.48126889      -1.80353165        1 
H      -1.53007667       1.03533850      -2.26928572        1 
H      -2.18033750       2.11817771      -1.04829978        1 
H       2.28715297       0.33047597      -2.41878226        1 
H       0.61112174       0.26781421      -2.93035350        1 
H       1.30431357       1.79183440      -2.35147736        1 
H       1.59704262       3.18354668       1.01306242        1 
H       1.02547629       2.99631272      -0.65804943        1 
H       2.24281629       0.02385229       2.25245345        1 
