35
Lattice="0.0 0.0 0.0 0.0 0.0 0.0 0.0 0.0 0.0" Properties=species:S:1:pos:R:3:Z:I:1 pbc="F F F"
C       0.23141852      -0.99277796       0.32241543        6 
C      -0.96355425       0.02900859       0.76119012        6 
C       1.55012913      -0.40585970      -0.22663826        6 
C      -0.76686714       1.56127227       0.69863129        6 
O       2.63417655      -0.97504585       0.36644471        8 
O       1.67948238       0.43291198      -1.07950197        8 
O      -0.24259234       2.00819671      -0.44183778        8 
O      -1.18450533       2.31240290       1.55468910        8 
C      -0.13580107       3.43054856      -0.59724342        6 
C       3.91224495      -0.52547013      -0.11161963        6 
C      -0.46746934      -1.77027693      -0.89792869        6 
C      -0.68843409      -0.80515816      -2.04759834        6 
C      -1.66905833       0.02681065      -1.68847107        6 
C      -2.10921579      -0.36559447      -0.29051670        6 
C      -1.91519690      -1.89359272      -0.37966253        6 
C       0.55676665      -2.02468081       1.42588214        6 
C      -1.48090966      -0.25033535       2.18813340        6 
H      -1.12713586       3.88749524      -0.62518350        1 
H       4.02700544       0.54767255       0.04970802        1 
H      -2.01728283       0.89696866      -2.22586467        1 
H       0.38204007       3.57292361      -1.54329714        1 
H       0.43485371       3.86576209       0.22406571        1 
H       4.64808045      -1.08100654       0.46625573        1 
H       4.02051312      -0.73703850      -1.17681032        1 
H      -3.08444926      -0.00011746       0.03147363        1 
H       0.05962312      -2.69445381      -1.13722273        1 
H      -1.81111667      -1.27823363       2.31337668        1 
H      -0.71863306      -0.04003117       2.94007083        1 
H      -2.32455595       0.40444332       2.39965329        1 
H       1.26782690      -2.75701278       1.04586950        1 
H       1.00636377      -1.55865134       2.30312270        1 
H      -0.33054282      -2.56467023       1.74549223        1 
H      -2.57506920      -2.34468075      -1.12178471        1 
H      -2.02268104      -2.42768528       0.56338066        1 
H      -0.07209978      -0.74597754      -2.93269950        1 
