35
Lattice="0.0 0.0 0.0 0.0 0.0 0.0 0.0 0.0 0.0" Properties=species:S:1:pos:R:3:Z:I:1 pbc="F F F"
C      -0.66548347      -0.90352585       0.33783527        6 
C      -0.67843420       0.65916276       0.73830949        6 
C       0.62787602      -1.45425773      -0.25824088        6 
C       0.66435067       1.37985393       0.53050300        6 
O       1.71471481      -1.05042203       0.42886672        8 
O       0.67603738      -2.28521348      -1.13318882        8 
O       1.03370206       1.45449241      -0.76467390        8 
O       1.33650896       1.84078660       1.42094252        8 
C       2.31475093       2.04860516      -1.02420035        6 
C       2.97261181      -1.61594594       0.02287132        6 
C      -1.84994567      -1.00174007      -0.70290186        6 
C      -1.43780718      -0.26176024      -1.96234112        6 
C      -1.43332647       1.04205944      -1.67414711        6 
C      -1.83980741       1.19414204      -0.21625317        6 
C      -2.84421379       0.02085386      -0.11392396        6 
C      -0.93363180      -1.85301525       1.53238478        6 
C      -1.06771477       0.92264186       2.20523824        6 
H       2.33140506       3.08936497      -0.69709090        1 
H       3.17293669      -1.38575969      -1.02478310        1 
H      -1.10097796       1.85158681      -2.30750366        1 
H       2.45038562       1.98286355      -2.10203121        1 
H       3.10052512       1.49929967      -0.50308829        1 
H       3.71737503      -1.15731335       0.66939888        1 
H       2.96253607      -2.69921431       0.15428338        1 
H      -2.19035725       2.18226990       0.08292368        1 
H      -2.19782830      -2.02431287      -0.83970904        1 
H      -2.03145790       0.48368572       2.45320596        1 
H      -0.31814443       0.53443285       2.89371469        1 
H      -1.13217876       1.99897655       2.37398224        1 
H      -0.90333771      -2.88740790       1.18194424        1 
H      -0.18540536      -1.73441469       2.31671027        1 
H      -1.91850436      -1.67947328       1.96400715        1 
H      -3.71084860       0.16594952      -0.76038081        1 
H      -3.18887454      -0.20369951       0.89574226        1 
H      -1.10263273      -0.74033471      -2.87136497        1 
