35
Lattice="0.0 0.0 0.0 0.0 0.0 0.0 0.0 0.0 0.0" Properties=species:S:1:pos:R:3:Z:I:1 pbc="F F F"
C       0.76140722      -0.39743606      -0.75902963        6 
C       0.31706163       1.05853905      -0.25616835        6 
C       0.01697967      -1.65352208      -0.26008737        6 
C      -1.10246445       1.24623083       0.26524593        6 
O      -1.18597412      -1.46456149       0.30004351        8 
O       0.54114279      -2.74474639      -0.29820017        8 
O      -2.01683079       0.81795805      -0.63121394        8 
O      -1.39547018       1.92772962       1.21959123        8 
C      -3.39248829       1.02965445      -0.28721084        6 
C      -1.82275666      -2.63697062       0.84129803        6 
C       2.17767955      -0.53101932       0.00183656        6 
C       1.83388611      -0.73141516       1.47558440        6 
C       1.35935410       0.43065516       1.93593769        6 
C       1.41980148       1.43060541       0.79275751        6 
C       2.67804674       0.91851104       0.05038015        6 
C       0.91397112      -0.54880210      -2.28019206        6 
C       0.34489215       2.11874884      -1.40488298        6 
H      -3.63764259       0.50463286       0.63814947        1 
H      -1.19186204      -3.09740361       1.60242073        1 
H       0.91692093       0.63148542       2.90168015        1 
H      -3.96674831       0.62198372      -1.11685918        1 
H      -3.60266669       2.09308535      -0.16058591        1 
H      -2.75484789      -2.28250804       1.27600798        1 
H      -2.01773039      -3.36243456       0.05028403        1 
H       1.38577195       2.48069569       1.07601966        1 
H       2.81520174      -1.28562463      -0.45270509        1 
H       1.33272182       2.22279680      -1.84725019        1 
H      -0.36404593       1.86869610      -2.19212970        1 
H       0.06329658       3.09080740      -0.99199189        1 
H       1.26710033      -1.55570140      -2.50800074        1 
H      -0.03812010      -0.39301404      -2.79350364        1 
H       1.63758625       0.16139650      -2.68099001        1 
H       3.58113362       1.01709164       0.65438062        1 
H       2.85530912       1.36772034      -0.92680186        1 
H       1.86007905      -1.68472013       1.98546647        1 
