35
Lattice="0.0 0.0 0.0 0.0 0.0 0.0 0.0 0.0 0.0" Properties=species:S:1:pos:R:3:Z:I:1 pbc="F F F"
C      -0.64266415      -0.91470708       0.30181893        6 
C      -0.68459268       0.63246890       0.73668657        6 
C       0.68391987      -1.46550100      -0.21321622        6 
C       0.60578997       1.42935412       0.48439559        6 
O       1.74017832      -0.97357345       0.46744524        8 
O       0.77631336      -2.39852855      -0.97477652        8 
O       1.04712989       1.35010571      -0.78719817        8 
O       1.15298460       2.11480679       1.31507787        8 
C       2.28299065       2.02133213      -1.07151596        6 
C       3.02024224      -1.55008903       0.15851210        6 
C      -1.80006452      -1.02049618      -0.76364264        6 
C      -1.40055592      -0.22631196      -1.99217649        6 
C      -1.45102463       1.06774501      -1.66515255        6 
C      -1.87314840       1.15850069      -0.20676745        6 
C      -2.83420310      -0.05114778      -0.15045993        6 
C      -0.94743476      -1.88708105       1.47710601        6 
C      -1.05956099       0.87048413       2.20805882        6 
H       2.19913953       3.09128722      -0.87603774        1 
H       3.26510387      -1.38810035      -0.89259724        1 
H      -1.13849820       1.90743912      -2.26925995        1 
H       2.47479891       1.83742543      -2.12692339        1 
H       3.08592804       1.60840629      -0.45794230        1 
H       3.73122991      -1.03751801       0.80267538        1 
H       3.01613533      -2.62178577       0.36348793        1 
H      -2.25720753       2.12341657       0.12445755        1 
H      -2.11021125      -2.04930174      -0.93752305        1 
H      -2.01100562       0.40705119       2.46073354        1 
H      -0.29421719       0.48621352       2.88292971        1 
H      -1.14190420       1.94184505       2.39293619        1 
H      -0.91600290      -2.91311159       1.10534798        1 
H      -0.21559782      -1.79012371       2.28003027        1 
H      -1.93849073      -1.71369042       1.89273220        1 
H      -3.70111200       0.08391050      -0.79872204        1 
H      -3.17770482      -0.31749340       0.84940461        1 
H      -1.03462626      -0.66120437      -2.91182468        1 
