35
Lattice="0.0 0.0 0.0 0.0 0.0 0.0 0.0 0.0 0.0" Properties=species:S:1:pos:R:3:Z:I:1 pbc="F F F"
C       0.87304141      -0.76086697      -0.44241037        6 
C       0.71420711       0.86151682      -0.49089563        6 
C      -0.39099218      -1.64228194      -0.50331831        6 
C      -0.69589918       1.48525164      -0.58588446        6 
O      -1.32558921      -1.35678528       0.41306856        8 
O      -0.50152789      -2.59081176      -1.24893586        8 
O      -1.49997078       1.23698012       0.45715185        8 
O      -1.01624454       2.26165571      -1.45944666        8 
C      -2.79207562       1.86257461       0.42808263        6 
C      -2.49324423      -2.19426165       0.41258718        6 
C       1.62196981      -0.95893932       0.95842020        6 
C       0.71302911      -0.55640164       2.10554128        6 
C       0.58814022       0.77230228       2.06972599        6 
C       1.40518955       1.27605449       0.89347306        6 
C       2.56929550       0.26043247       0.94777309        6 
C       1.78117393      -1.30215146      -1.56717485        6 
C       1.50494594       1.50031485      -1.65200578        6 
H      -2.69630753       2.94972942       0.44600036        1 
H      -2.22575244      -3.23167827       0.61995099        1 
H      -0.05574567       1.38555804       2.68265812        1 
H      -3.30157326       1.50786327       1.32193383        1 
H      -3.34099916       1.57040630      -0.46870069        1 
H      -3.13041593      -1.79663656       1.20001184        1 
H      -2.99971172      -2.14479042      -0.55277704        1 
H       1.66274411       2.33538486       0.90624758        1 
H       2.07508231      -1.94795322       1.02746673        1 
H       2.56116703       1.24850391      -1.61199844        1 
H       1.11198730       1.19801351      -2.62258151        1 
H       1.41391842       2.58484916      -1.59541383        1 
H       1.91555755      -2.37542451      -1.43618845        1 
H       1.33276603      -1.15662813      -2.55009876        1 
H       2.76301219      -0.83636710      -1.56217312        1 
H       3.13617476       0.34144780       1.87551034        1 
H       3.25535105       0.30471148       0.10416209        1 
H       0.18829410      -1.24641285       2.75072385        1 
