35
Lattice="0.0 0.0 0.0 0.0 0.0 0.0 0.0 0.0 0.0" Properties=species:S:1:pos:R:3:Z:I:1 pbc="F F F"
C      -0.50660483      -1.00793537       0.25955884        6 
C      -0.73523948       0.48841427       0.77739992        6 
C       0.89394195      -1.33866032      -0.24232176        6 
C       0.35951871       1.51936352       0.47118226        6 
O       1.83221637      -0.99295559       0.66871560        8 
O       1.14069618      -1.99762880      -1.22275892        8 
O       1.08163100       1.23659233      -0.62826833        8 
O       0.49059926       2.55525008       1.08149883        8 
C       2.03780669       2.22185744      -1.04756652        6 
C       3.18995810      -1.30226646       0.31920096        6 
C      -1.61807313      -1.17597598      -0.84345597        6 
C      -1.32044241      -0.22986615      -1.99281716        6 
C      -1.56615619       1.01230150      -1.56612110        6 
C      -2.00748915       0.91629534      -0.11416714        6 
C      -2.78557892      -0.41407922      -0.17205228        6 
C      -0.72676824      -2.08368399       1.36131740        6 
C      -1.07592132       0.60912699       2.26867451        6 
H       1.54159779       3.16982394      -1.26150858        1 
H       3.46632407      -0.79260933      -0.60581843        1 
H      -1.37131111       1.93745660      -2.09231768        1 
H       2.49156839       1.81511810      -1.94900644        1 
H       2.78966948       2.37803542      -0.27251501        1 
H       3.79428929      -0.94185742       1.14892690        1 
H       3.31944280      -2.37756345       0.18682461        1 
H      -2.51176311       1.78876894       0.29947299        1 
H      -1.78130699      -2.21751310      -1.11536405        1 
H      -1.96046321       0.02761298       2.52664027        1 
H      -0.24762023       0.27004588       2.89419962        1 
H      -1.26786899       1.65321389       2.51320517        1 
H      -0.54801786      -3.07306162       0.93252193        1 
H      -0.04127990      -1.94878689       2.19691332        1 
H      -1.74549269      -2.07102439       1.74517788        1 
H      -3.66085343      -0.34971401      -0.81975691        1 
H      -3.08836154      -0.80137350       0.80072609        1 
H      -0.88337813      -0.53245484      -2.93376938        1 
