35
Lattice="0.0 0.0 0.0 0.0 0.0 0.0 0.0 0.0 0.0" Properties=species:S:1:pos:R:3:Z:I:1 pbc="F F F"
C       0.65808784      -0.70038909       0.45123517        6 
C      -0.94658073      -0.59533327       0.55246234        6 
C       1.40869930       0.62945887       0.34682109        6 
C      -1.59250534       0.80535275       0.44576049        6 
O       2.73222201       0.39795687       0.15846939        8 
O       0.95182370       1.74376059       0.35686734        8 
O      -1.43197124       1.40381487      -0.74440367        8 
O      -2.33393197       1.25183219       1.29160205        8 
C      -1.98782380       2.72028113      -0.86843057        6 
C       3.55699343       1.56274648      -0.01700474        6 
C       0.88558600      -1.63348732      -0.80667697        6 
C       0.44414340      -0.88744563      -2.04878283        6 
C      -0.88787854      -0.80101152      -2.00511355        6 
C      -1.35672013      -1.48093235      -0.72591453        6 
C      -0.30202799      -2.60849201      -0.64674256        6 
C       1.27813667      -1.39049227       1.70060050        6 
C      -1.54303357      -1.23586118       1.81840468        6 
H      -3.07019250       2.69896284      -0.73073912        1 
H       3.50708101       2.20395477       0.86420525        1 
H      -1.53103052      -0.26680318      -2.68791883        1 
H      -1.73424655       3.04574206      -1.87567053        1 
H      -1.53935321       3.38538056      -0.12928027        1 
H       4.56686621       1.18338857      -0.15831737        1 
H       3.23430576       2.13066250      -0.89128290        1 
H      -2.40676846      -1.77225392      -0.69681802        1 
H       1.88836743      -2.05629662      -0.82419021        1 
H      -1.24774854      -2.27719387       1.92737470        1 
H      -1.25337430      -0.69468609       2.71925907        1 
H      -2.63098992      -1.19752822       1.76200227        1 
H       2.35393361      -1.48917666       1.56089616        1 
H       1.10618073      -0.80522657       2.60665907        1 
H       0.86675932      -2.38466880       1.86066260        1 
H      -0.37871161      -3.30030745      -1.48686632        1 
H      -0.30804921      -3.17622026       0.28311680        1 
H       1.10896941      -0.42972777      -2.76903026        1 
