35
Lattice="0.0 0.0 0.0 0.0 0.0 0.0 0.0 0.0 0.0" Properties=species:S:1:pos:R:3:Z:I:1 pbc="F F F"
C       0.80782804      -0.62364943      -0.61303289        6 
C       0.36897456       0.92402171      -0.46176429        6 
C      -0.13658416      -1.61777778       0.05529873        6 
C      -0.93062997       1.07627771       0.33992516        6 
O      -1.39875781      -1.47294477      -0.41174124        8 
O       0.18285910      -2.48506333       0.82828416        8 
O      -1.93873589       1.58505832      -0.40055722        8 
O      -1.07231599       0.79695918       1.50677268        8 
C      -3.20818157       1.69421465       0.26273358        6 
C      -2.39310615      -2.33907566       0.16219840        6 
C       2.22468823      -0.64107006       0.08217209        6 
C       2.03652517      -0.41149040       1.57321372        6 
C       1.65899152       0.85864316       1.73548059        6 
C       1.60571550       1.50171458       0.35772142        6 
C       2.76838994       0.74456445      -0.32696365        6 
C       0.92114415      -1.10734682      -2.07766467        6 
C       0.24760465       1.66552572      -1.80549149        6 
H      -3.54531561       0.71141421       0.59671230        1 
H      -2.49097465      -2.13784862       1.23019605        1 
H       1.33457890       1.33337979       2.64943835        1 
H      -3.89019861       2.10086574      -0.48119518        1 
H      -3.13821924       2.35874528       1.12513008        1 
H      -3.31864832      -2.10375790      -0.35965581        1 
H      -2.12470554      -3.38572253       0.01312589        1 
H       1.63284191       2.59163618       0.33336926        1 
H       2.80972926      -1.51605825      -0.19815663        1 
H       1.17575076       1.62077339      -2.37248520        1 
H      -0.55216442       1.25871338      -2.42233105        1 
H       0.01799165       2.71753786      -1.62587836        1 
H       1.21061978      -2.16189648      -2.08748260        1 
H      -0.02559834      -1.01720341      -2.61118267        1 
H       1.68335360      -0.55268470      -2.62449224        1 
H       3.73006200       0.96050793       0.13887337        1 
H       2.84845122       0.90512642      -1.40301562        1 
H       2.07299908      -1.18930503       2.32109752        1 
