35
Lattice="0.0 0.0 0.0 0.0 0.0 0.0 0.0 0.0 0.0" Properties=species:S:1:pos:R:3:Z:I:1 pbc="F F F"
C       0.71892481      -0.72538827       0.36672495        6 
C      -0.86127932      -0.53347886       0.68703699        6 
C       1.46928312       0.55534568      -0.03039963        6 
C      -1.44289872       0.90010822       0.62162639        6 
O       2.77783220       0.49817227       0.32261288        8 
O       1.02818651       1.48994571      -0.65061177        8 
O      -1.64167794       1.36347657      -0.61750808        8 
O      -1.87812178       1.47539426       1.59544625        8 
C      -2.18071214       2.68723075      -0.73070542        6 
C       3.58188997       1.61862999      -0.08458358        6 
C       0.69342974      -1.73274703      -0.86859141        6 
C       0.09822633      -1.03424013      -2.07420818        6 
C      -1.20480366      -0.87454650      -1.83445938        6 
C      -1.49904454      -1.45565918      -0.45999100        6 
C      -0.49768502      -2.63430170      -0.47495919        6 
C       1.47459956      -1.39763157       1.53711904        6 
C      -1.28428652      -1.07993133       2.06404308        6 
H      -3.14132830       2.76147239      -0.21838173        1 
H       3.20652023       2.54061318       0.36197998        1 
H      -1.92111413      -0.34787677      -2.44551040        1 
H      -2.29775413       2.85876545      -1.79902617        1 
H      -1.48351458       3.41119902      -0.30631868        1 
H       4.58517236       1.39921587       0.27450271        1 
H       3.57466185       1.72079886      -1.17098662        1 
H      -2.54398801      -1.69024291      -0.25528976        1 
H       1.66151840      -2.21155151      -1.01467583        1 
H      -1.05418749      -2.13705537       2.17182788        1 
H      -0.81271773      -0.53231209       2.87906589        1 
H      -2.36200865      -0.95878257       2.18051855        1 
H       2.49709686      -1.62087681       1.23789347        1 
H       1.52317450      -0.74870177       2.41336243        1 
H       1.00257178      -2.33055433       1.83408371        1 
H      -0.73106264      -3.35801169      -1.25665753        1 
H      -0.38651452      -3.15808349       0.47410916        1 
H       0.66353692      -0.64675090      -2.91046797        1 
