35
Lattice="0.0 0.0 0.0 0.0 0.0 0.0 0.0 0.0 0.0" Properties=species:S:1:pos:R:3:Z:I:1 pbc="F F F"
C       0.84298849       0.70140967      -0.44915602        6 
C      -0.72655806       0.36119243      -0.61214888        6 
C       1.68171578      -0.31751936       0.34792387        6 
C      -1.17019137      -0.99061112      -0.04969535        6 
O       2.33258191      -1.16387214      -0.48563414        8 
O       1.73224548      -0.43224544       1.54447757        8 
O      -2.47434128      -1.21629637      -0.35514436        8 
O      -0.54056983      -1.75022911       0.64006463        8 
C      -3.04980105      -2.41746400       0.18619019        6 
C       3.00075572      -2.26662090       0.15025378        6 
C       0.74464693       2.03874996       0.42587383        6 
C       0.17858868       1.69794961       1.80043885        6 
C      -1.11598654       1.40870382       1.64364408        6 
C      -1.43187846       1.54825859       0.16680728        6 
C      -0.49390981       2.71757267      -0.19919403        6 
C       1.56988275       1.01291783      -1.77171785        6 
C      -1.17252821       0.38192660      -2.09823169        6 
H      -2.51979360      -3.29689881      -0.18294803        1 
H       2.27706425      -2.86950245       0.70095412        1 
H      -1.79962655       1.02778831       2.39066574        1 
H      -4.08264041      -2.42284716      -0.15630173        1 
H      -3.00619421      -2.40612754       1.27646691        1 
H       3.44790195      -2.84109863      -0.65881765        1 
H       3.76992070      -1.90912875       0.83665585        1 
H      -2.48307916       1.63691004      -0.10346111        1 
H       1.68016578       2.59843091       0.42115836        1 
H      -0.90200978       1.31512701      -2.58676188        1 
H      -0.71924060      -0.43583849      -2.66375149        1 
H      -2.25367070       0.26734947      -2.15775434        1 
H       2.61942063       1.23190912      -1.56386116        1 
H       1.54423516       0.17168723      -2.46261653        1 
H       1.14641220       1.88509768      -2.26804424        1 
H      -0.76673963       3.63639233       0.32087045        1 
H      -0.41553544       2.92080998      -1.26766841        1 
H       0.76306454       1.61408749       2.70274490        1 
