35
Lattice="0.0 0.0 0.0 0.0 0.0 0.0 0.0 0.0 0.0" Properties=species:S:1:pos:R:3:Z:I:1 pbc="F F F"
C       0.80286677       0.48436183      -0.52409085        6 
C      -0.82210440       0.35359904      -0.55305629        6 
C       1.63880019      -0.58401171       0.21545420        6 
C      -1.49118195      -0.88428778       0.07625219        6 
O       2.73541752      -0.94646038      -0.51060150        8 
O       1.41636399      -1.07212638       1.28885630        8 
O      -2.71204055      -1.10401110      -0.49654939        8 
O      -1.11371950      -1.55256059       0.99841699        8 
C      -3.48778831      -2.16400631       0.08427504        6 
C       3.57627566      -1.93798905       0.10091340        6 
C       0.96200757       1.82145794       0.36640052        6 
C       0.50107911       1.51782039       1.78193431        6 
C      -0.82837322       1.39661115       1.75343886        6 
C      -1.27228689       1.61698294       0.32014189        6 
C      -0.23077733       2.66154095      -0.12740662        6 
C       1.41124099       0.74274178      -1.91752263        6 
C      -1.38067293       0.52364568      -1.98883922        6 
H      -2.97532418      -3.12119842      -0.02618334        1 
H       3.01665908      -2.85879299       0.27447725        1 
H      -1.47039380       1.06398789       2.55705087        1 
H      -4.42725648      -2.16873849      -0.46539887        1 
H      -3.66365161      -1.97708634       1.14494239        1 
H       4.38540238      -2.10807750      -0.60679781        1 
H       3.96828982      -1.57814231       1.05371516        1 
H      -2.32447256       1.85364420       0.16285984        1 
H       1.95841045       2.25164728       0.26385111        1 
H      -1.01434395       1.43014268      -2.46221178        1 
H      -1.11751657      -0.32243340      -2.62680070        1 
H      -2.46570565       0.58282050      -1.95588651        1 
H       2.48043015       0.92092371      -1.82316753        1 
H       1.28269557      -0.11222057      -2.58290445        1 
H       0.97399458       1.61615574      -2.39543198        1 
H      -0.32963479       3.59739281       0.42396677        1 
H      -0.22924392       2.87529302      -1.19530968        1 
H       1.15543968       1.30767240       2.61483442        1 
