35
Lattice="0.0 0.0 0.0 0.0 0.0 0.0 0.0 0.0 0.0" Properties=species:S:1:pos:R:3:Z:I:1 pbc="F F F"
C       0.61787699      -0.73474722       0.45052559        6 
C      -0.97798300      -0.54944046       0.54787373        6 
C       1.43528561       0.55641551       0.38542425        6 
C      -1.55811674       0.87776036       0.42176387        6 
O       2.73105551       0.26813623       0.10712609        8 
O       1.04176863       1.68834128       0.50649267        8 
O      -1.27599224       1.49367228      -0.73677536        8 
O      -2.34765242       1.33782909       1.21511393        8 
C      -1.78158241       2.82839127      -0.87991095        6 
C       3.61524729       1.39475547      -0.02028768        6 
C       0.80430372      -1.67072420      -0.80977086        6 
C       0.39977655      -0.90050344      -2.04981488        6 
C      -0.92711506      -0.75309151      -2.00899191        6 
C      -1.42886470      -1.41444634      -0.73211038        6 
C      -0.42851859      -2.58994037      -0.65537360        6 
C       1.19985775      -1.46224643       1.69917237        6 
C      -1.61118334      -1.15314243       1.81277901        6 
H      -2.87166591       2.83671894      -0.83092986        1 
H       3.65010667       1.96255515       0.91068547        1 
H      -1.54282151      -0.18524174      -2.69037455        1 
H      -1.43794046       3.16320600      -1.85695680        1 
H      -1.37666188       3.46722334      -0.09391974        1 
H       4.59167802       0.97206617      -0.24760852        1 
H       3.28399164       2.05082826      -0.82709222        1 
H      -2.49145767      -1.65572822      -0.70332231        1 
H       1.78564242      -2.14070856      -0.82911270        1 
H      -1.36553492      -2.20665621       1.93023540        1 
H      -1.30025270      -0.62013529       2.71172651        1 
H      -2.69561596      -1.06407117       1.75110072        1 
H       2.27219912      -1.60308025       1.56517160        1 
H       1.04506100      -0.87854882       2.60921701        1 
H       0.74845524      -2.44085714       1.84847446        1 
H      -0.53603740      -3.27461686      -1.49779807        1 
H      -0.46393987      -3.15902936       0.27310605        1 
H       1.08746990      -0.47120730      -2.76604973        1 
