35
Lattice="0.0 0.0 0.0 0.0 0.0 0.0 0.0 0.0 0.0" Properties=species:S:1:pos:R:3:Z:I:1 pbc="F F F"
C       0.41222420      -0.97317261       0.29041582        6 
C      -0.93007853      -0.18387698       0.77519917        6 
C       1.53386569      -0.07777950      -0.26469000        6 
C      -0.89499811       1.36073550       0.71261180        6 
O       2.74501337      -0.39165980       0.25869317        8 
O       1.41148337       0.79468232      -1.08766279        8 
O      -0.96715247       1.86868302      -0.52122018        8 
O      -0.95073872       2.06164974       1.70017724        8 
C      -0.92371142       3.29793601      -0.63542360        6 
C       3.85578606       0.37664195      -0.23402121        6 
C      -0.16534267      -1.88324653      -0.89014178        6 
C      -0.60734368      -1.00798938      -2.04567074        6 
C      -1.71189173      -0.36589113      -1.65918260        6 
C      -2.01546516      -0.79246425      -0.23311995        6 
C      -1.54601919      -2.26149852      -0.31097509        6 
C       0.98628214      -1.89340678       1.38692689        6 
C      -1.34411275      -0.51925240       2.22033630        6 
H      -1.75805463       3.75450218      -0.10046609        1 
H       3.71640670       1.43565679      -0.01149255        1 
H      -2.24535278       0.39957172      -2.20158321        1 
H      -0.98841044       3.50168904      -1.70227032        1 
H       0.01657852       3.67878854      -0.23422825        1 
H       4.72868905      -0.01270612       0.28575241        1 
H       3.96141905       0.25034190      -1.31274703        1 
H      -3.03194067      -0.61072083       0.11712042        1 
H       0.51514868      -2.69939735      -1.13558950        1 
H      -1.51803460      -1.58378020       2.35848912        1 
H      -0.59749105      -0.18901771       2.94167204        1 
H      -2.27040029       0.00603512       2.45658146        1 
H       1.82542815      -2.46226830       0.98805710        1 
H       1.35358547      -1.32675885       2.24275494        1 
H       0.24337481      -2.60345691       1.74305075        1 
H      -2.13755088      -2.84050501      -1.02107133        1 
H      -1.51720930      -2.79061893       0.64081523        1 
H      -0.05211450      -0.86283252      -2.96129223        1 
