35
Lattice="0.0 0.0 0.0 0.0 0.0 0.0 0.0 0.0 0.0" Properties=species:S:1:pos:R:3:Z:I:1 pbc="F F F"
C      -0.55019862       1.03097158       0.27669863        6 
C       0.74218912       0.19412334       0.77705722        6 
C      -1.54377187       0.13680551      -0.47885154        6 
C       0.65933225      -1.28806569       0.41303046        6 
O      -2.59642905      -0.20553543       0.28576820        8 
O      -1.42766456      -0.22653253      -1.62555840        8 
O       1.77820059      -1.75141667      -0.17315110        8 
O      -0.26562347      -2.00720420       0.71289160        8 
C       1.77930762      -3.15151984      -0.51099948        6 
C      -3.49577804      -1.17529322      -0.27748213        6 
C       0.12939068       2.08986538      -0.68183961        6 
C       0.76142553       1.38765009      -1.87441805        6 
C       1.83778922       0.73321230      -1.43298156        6 
C       1.92763261       0.96721659       0.06640911        6 
C       1.40786644       2.41930153       0.12619506        6 
C      -1.29520742       1.76674895       1.40891037        6 
C       0.93395597       0.19100395       2.30894445        6 
H       1.66729723      -3.76222110       0.38607762        1 
H      -2.96483976      -2.11327359      -0.44609008        1 
H       2.47190955       0.05938026      -1.98974996        1 
H       2.74221869      -3.33380520      -0.98312968        1 
H       0.96408658      -3.37142303      -1.20147163        1 
H      -4.27959432      -1.30791463       0.46535497        1 
H      -3.91311533      -0.81511465      -1.21890280        1 
H       2.89254081       0.75831407       0.52635856        1 
H      -0.54204311       2.91606195      -0.91805193        1 
H       1.06802013       1.20006983       2.69785594        1 
H       0.08414931      -0.26990020       2.81293783        1 
H       1.82990661      -0.38337844       2.56123928        1 
H      -2.14178168       2.31564917       0.99010698        1 
H      -1.69355717       1.07886601       2.15260334        1 
H      -0.65091026       2.48661952       1.91043193        1 
H       2.06141237       3.11144990      -0.40575413        1 
H       1.22903348       2.79790077       1.13298292        1 
H       0.33630350       1.35973085      -2.86641698        1 
