35
Lattice="0.0 0.0 0.0 0.0 0.0 0.0 0.0 0.0 0.0" Properties=species:S:1:pos:R:3:Z:I:1 pbc="F F F"
C      -0.62602965       0.30117244       0.70869030        6 
C       0.87793397       0.74113946       0.31931363        6 
C      -1.17073516      -1.01970795       0.12596406        6 
C       1.81432939      -0.25782691      -0.36107369        6 
O      -2.50866425      -0.89761920      -0.09959890        8 
O      -0.61293414      -2.07799543       0.00141642        8 
O       1.90607933      -1.40998762       0.31389157        8 
O       2.57530377       0.04401059      -1.25396843        8 
C       2.80381368      -2.39824632      -0.21266711        6 
C      -3.18592938      -2.09229584      -0.52033447        6 
C      -1.45088678       1.49859113       0.04610896        6 
C      -1.34908698       1.29060135      -1.46218961        6 
C      -0.09318390       1.57451677      -1.82068639        6 
C       0.64878466       2.00985866      -0.56871794        6 
C      -0.49820583       2.69418161       0.20689326        6 
C      -0.89177579       0.18756562       2.22136280        6 
C       1.72178126       1.14237445       1.56875458        6 
H       2.52593432      -2.65375450      -1.23628934        1 
H      -3.09962452      -2.87166151       0.23903755        1 
H       0.36856710       1.43685284      -2.78833928        1 
H       2.69013065      -3.26429792       0.43546630        1 
H       3.83234970      -2.03290285      -0.19769343        1 
H      -4.22631407      -1.80280601      -0.65468560        1 
H      -2.76748640      -2.46273721      -1.45784701        1 
H       1.56453905       2.57381227      -0.73247336        1 
H      -2.45549035       1.59253675       0.45189956        1 
H       1.27886130       1.97325798       2.11583276        1 
H       1.84827732       0.30302152       2.25199236        1 
H       2.71384458       1.45903920       1.23737420        1 
H      -1.94601259      -0.04279127       2.38970124        1 
H      -0.29136288      -0.60810624       2.66663363        1 
H      -0.66720885       1.12128957       2.73623854        1 
H      -0.86893456       3.58400036      -0.30416757        1 
H      -0.26285322       2.94889728       1.24064496        1 
H      -2.13402718       0.87459572      -2.07800861        1 
