35
Lattice="0.0 0.0 0.0 0.0 0.0 0.0 0.0 0.0 0.0" Properties=species:S:1:pos:R:3:Z:I:1 pbc="F F F"
C      -0.91572250      -0.66656858      -0.42477339        6 
C       0.65087342      -0.41533318      -0.67015410        6 
C      -1.66362010       0.46088768       0.29761568        6 
C       1.20152528       0.84316798       0.00366262        6 
O      -1.88861040       1.50224656      -0.53287560        8 
O      -2.07683468       0.41687781       1.42906476        8 
O       2.51564335       0.99895687      -0.28615042        8 
O       0.61833446       1.59098053       0.74769855        8 
C       3.17088557       2.10779439       0.35499253        6 
C      -2.49459507       2.65717455       0.06996578        6 
C      -0.88838168      -1.97058139       0.47299929        6 
C      -0.21213979      -1.64602396       1.79808759        6 
C       1.09196087      -1.48403866       1.55699312        6 
C       1.30074590      -1.67610681       0.06296983        6 
C       0.24637189      -2.76330826      -0.21641823        6 
C      -1.72052166      -0.95394487      -1.71617715        6 
C       1.04484464      -0.38759021      -2.15937581        6 
H       2.70158893       3.04898072       0.06449414        1 
H      -1.84873166       3.04030550       0.86111737        1 
H       1.85099590      -1.14659963       2.25035653        1 
H       4.20271037       2.07226547       0.01228603        1 
H       3.12096462       2.00482088       1.44018925        1 
H      -2.59532261       3.38546599      -0.73238796        1 
H      -3.47172804       2.40642566       0.48575765        1 
H       2.32208808      -1.85543807      -0.26888122        1 
H      -1.86642932      -2.44565491       0.54179803        1 
H       0.73670886      -1.30130849      -2.66539959        1 
H       0.58309041       0.45633882      -2.67757047        1 
H       2.12559334      -0.29188108      -2.25511788        1 
H      -2.76845459      -1.12224914      -1.45341680        1 
H      -1.68372944      -0.11626751      -2.41038122        1 
H      -1.36477746      -1.84734718      -2.22693250        1 
H       0.47414777      -3.69597808       0.30138181        1 
H       0.08264530      -2.97327337      -1.27444619        1 
H      -0.73823785      -1.47407329       2.72439018        1 
