35
Lattice="0.0 0.0 0.0 0.0 0.0 0.0 0.0 0.0 0.0" Properties=species:S:1:pos:R:3:Z:I:1 pbc="F F F"
C      -0.65426653      -0.91481860       0.33482935        6 
C      -0.68753200       0.64542934       0.75385686        6 
C       0.63775134      -1.41228682      -0.31213759        6 
C       0.65927043       1.36244832       0.56573854        6 
O       1.71810656      -1.11673559       0.43813664        8 
O       0.69535298      -2.09174704      -1.30813740        8 
O       1.00648533       1.50645515      -0.72982209        8 
O       1.36613719       1.73804354       1.46901704        8 
C       2.29439525       2.09155655      -0.97923470        6 
C       2.98027139      -1.61373789      -0.03867454        6 
C      -1.85255986      -1.00864795      -0.69444687        6 
C      -1.46637034      -0.24760733      -1.95076013        6 
C      -1.46843359       1.05189295      -1.64526627        6 
C      -1.85833679       1.18088579      -0.18115370        6 
C      -2.85034622      -0.00429374      -0.08180440        6 
C      -0.88592678      -1.88677841       1.51421873        6 
C      -1.07250767       0.87874532       2.22872616        6 
H       2.33210587       3.11490608      -0.60232270        1 
H       3.17604376      -1.24914133      -1.04825268        1 
H      -1.15208307       1.87305175      -2.27180438        1 
H       2.41378162       2.07625645      -2.06072025        1 
H       3.07781439       1.50585200      -0.49585780        1 
H       3.72238408      -1.23579353       0.66090576        1 
H       2.97981742      -2.70498410      -0.04845431        1 
H      -2.21622141       2.16124119       0.13462521        1 
H      -2.19277300      -2.03284074      -0.84061339        1 
H      -2.03155689       0.42811706       2.47367773        1 
H      -0.31666353       0.48513809       2.90676249        1 
H      -1.14582912       1.95177663       2.41652174        1 
H      -0.83348312      -2.91582488       1.14879818        1 
H      -0.13240676      -1.76213700       2.29183106        1 
H      -1.87126361      -1.74617199       1.95765144        1 
H      -3.72528156       0.14013358      -0.71705984        1 
H      -3.18190108      -0.24526245       0.92854418        1 
H      -1.14265284      -0.71057605      -2.87133103        1 
