35
Lattice="0.0 0.0 0.0 0.0 0.0 0.0 0.0 0.0 0.0" Properties=species:S:1:pos:R:3:Z:I:1 pbc="F F F"
C       0.67361582      -0.62452352      -0.72880591        6 
C       0.65150269       0.92158381      -0.29006696        6 
C      -0.61021771      -1.43026711      -0.47531906        6 
C      -0.66594071       1.50825644       0.20558427        6 
O      -1.06394119      -1.36416422       0.79204591        8 
O      -1.13449865      -2.13452600      -1.30628793        8 
O      -1.73505357       0.95879983      -0.40852685        8 
O      -0.74502944       2.51395580       0.87053127        8 
C      -3.01142132       1.56658222      -0.14859045        6 
C      -2.29125985      -2.06145999       1.05272689        6 
C       1.85393808      -1.16424075       0.21849956        6 
C       1.42776552      -1.06580337       1.67696439        6 
C       1.39371727       0.22850872       2.00478773        6 
C       1.80737968       1.01526738       0.77565235        6 
C       2.82965822       0.03220545       0.16296876        6 
C       1.04695462      -0.86545761      -2.20093205        6 
C       0.97405601       1.88428486      -1.47222560        6 
H      -3.27088656       1.46791501       0.90688507        1 
H      -2.18655393      -3.12690738       0.84293674        1 
H       1.02945279       0.66695266       2.92353305        1 
H      -3.72114747       1.02338058      -0.76905651        1 
H      -2.99415433       2.62393025      -0.41676468        1 
H      -2.50020245      -1.89575232       2.10770646        1 
H      -3.09390865      -1.65495052       0.43417114        1 
H       2.12807365       2.04103948       0.94628827        1 
H       2.22495687      -2.13503073      -0.11090998        1 
H       1.95588676       1.68355235      -1.89607451        1 
H       0.23306149       1.80316544      -2.26926554        1 
H       0.96930442       2.91086296      -1.10269088        1 
H       1.12367933      -1.93698555      -2.38552137        1 
H       0.28212467      -0.47856030      -2.87524716        1 
H       1.99979881      -0.40662212      -2.45573000        1 
H       3.69546823      -0.11494057       0.80972354        1 
H       3.17488442       0.29394465      -0.83745103        1 
H       1.10152701      -1.90200456       2.27857652        1 
