35
Lattice="0.0 0.0 0.0 0.0 0.0 0.0 0.0 0.0 0.0" Properties=species:S:1:pos:R:3:Z:I:1 pbc="F F F"
C       0.81061745       0.50571672      -0.52646162        6 
C      -0.78456239       0.53859694      -0.53672433        6 
C       1.43191198      -0.88029856      -0.39590505        6 
C      -1.45919418      -0.66332309       0.13851720        6 
O       2.62841747      -0.82540603       0.23341941        8 
O       0.95686451      -1.90291953      -0.81921578        8 
O      -2.76701667      -0.74085098      -0.21842622        8 
O      -0.96941997      -1.41814177       0.93745250        8 
C      -3.52356780      -1.79371043       0.40243237        6 
C       3.31168836      -2.08499098       0.37335917        6 
C       1.19579354       1.58689577       0.54864108        6 
C       0.68092581       1.14578180       1.90707471        6 
C      -0.64933993       1.26572817       1.89177124        6 
C      -1.04656859       1.75149785       0.50348023        6 
C       0.14838900       2.67611745       0.20883822        6 
C       1.43028499       0.93697844      -1.89747366        6 
C      -1.42055922       0.84056457      -1.89926243        6 
H      -3.07784815      -2.76467912       0.18213282        1 
H       3.54577260      -2.50372254      -0.60698879        1 
H      -1.34279139       0.93633457       2.65371639        1 
H      -4.52183365      -1.72316106      -0.02511883        1 
H      -3.55965957      -1.65522543       1.48454545        1 
H       4.22401027      -1.86186468       0.92242408        1 
H       2.69044250      -2.79184345       0.92496774        1 
H      -2.05016620       2.16199819       0.39919217        1 
H       2.24638515       1.86576267       0.50193229        1 
H      -1.01304837       1.75194180      -2.33648258        1 
H      -1.25387349       0.02066571      -2.60140058        1 
H      -2.49589808       0.97145955      -1.79120769        1 
H       2.51928125       0.90352803      -1.81740347        1 
H       1.13122732       0.25902184      -2.69823071        1 
H       1.15415036       1.94944832      -2.18611638        1 
H       0.19192036       3.51937777       0.89899436        1 
H       0.18486253       3.04847406      -0.81475963        1 
H       1.29141187       0.70701736       2.68395931        1 
