35
Lattice="0.0 0.0 0.0 0.0 0.0 0.0 0.0 0.0 0.0" Properties=species:S:1:pos:R:3:Z:I:1 pbc="F F F"
C       0.76635766      -0.49694054      -0.75912028        6 
C       0.50867680       1.01954811      -0.28166256        6 
C      -0.35092347      -1.51783156      -0.52074340        6 
C      -0.86945674       1.28335946       0.32509883        6 
O      -1.08502612      -1.27448956       0.57764652        8 
O      -0.52857083      -2.49336913      -1.21350714        8 
O      -1.82475358       1.22912452      -0.63458996        8 
O      -1.11532729       1.52384943       1.47951598        8 
C      -3.18006620       1.38611021      -0.18641150        6 
C      -2.10903861      -2.23239302       0.89190063        6 
C       2.01853905      -0.90353359       0.14716664        6 
C       1.58216096      -0.94973375       1.60179207        6 
C       1.35583097       0.30684213       1.99328102        6 
C       1.64467040       1.21229060       0.80549035        6 
C       2.80347181       0.42510222       0.15385082        6 
C       1.14358267      -0.61435820      -2.24778319        6 
C       0.68212654       2.07144577      -1.40247289        6 
H      -3.43024633       0.61189008       0.54106372        1 
H      -1.67167790      -3.21831187       1.05637625        1 
H       0.93192129       0.63960449       2.92821131        1 
H      -3.79559578       1.28655767      -1.07816249        1 
H      -3.32492284       2.36566047       0.27195039        1 
H      -2.57735542      -1.86302605       1.80150220        1 
H      -2.83436831      -2.29626497       0.07880823        1 
H       1.81799626       2.26236900       1.03888724        1 
H       2.51916354      -1.79028665      -0.24071139        1 
H       1.70108977       2.08988714      -1.78635463        1 
H      -0.00047499       1.89528537      -2.23184477        1 
H       0.46548001       3.06416154      -0.99789558        1 
H       1.38712062      -1.65034929      -2.48010961        1 
H       0.31230458      -0.32226689      -2.89254097        1 
H       2.00389546       0.00410328      -2.49789060        1 
H       3.68287248       0.37742029       0.79681668        1 
H       3.10046430       0.77938376      -0.83355377        1 
H       1.38004157      -1.85666452       2.15585344        1 
