35
Lattice="0.0 0.0 0.0 0.0 0.0 0.0 0.0 0.0 0.0" Properties=species:S:1:pos:R:3:Z:I:1 pbc="F F F"
C       0.75350786      -0.47702533      -0.76852105        6 
C       0.49632955       1.02203946      -0.26512037        6 
C      -0.31594059      -1.53199568      -0.46422086        6 
C      -0.90053571       1.31291737       0.26829157        6 
O      -1.09340627      -1.24377082       0.59406541        8 
O      -0.39284548      -2.58630120      -1.05255898        8 
O      -1.83817126       1.04162214      -0.67003050        8 
O      -1.15330725       1.85378981       1.31629031        8 
C      -3.20189621       1.27618418      -0.28923376        6 
C      -2.04821358      -2.24547735       0.98189642        6 
C       2.02750006      -0.87786809       0.12435765        6 
C       1.58298836      -0.96503595       1.57685379        6 
C       1.32237274       0.27735914       1.99296659        6 
C       1.60956365       1.21517737       0.83248410        6 
C       2.78647734       0.46287319       0.16712775        6 
C       1.09247907      -0.59734177      -2.26221478        6 
C       0.68293720       2.09124028      -1.37608800        6 
H      -3.47144548       0.64104347       0.55699634        1 
H      -1.54277524      -3.17951648       1.23159387        1 
H       0.87484029       0.58170807       2.92777837        1 
H      -3.79770650       1.01842607      -1.16250312        1 
H      -3.35373705       2.32099398      -0.01465844        1 
H      -2.55441462      -1.83735280       1.85397484        1 
H      -2.75692788      -2.42889905       0.17260900        1 
H       1.75951084       2.26169568       1.09279537        1 
H       2.54160796      -1.74821503      -0.28173756        1 
H       1.70266172       2.10822781      -1.75739513        1 
H       0.00252855       1.92616455      -2.20992961        1 
H       0.47061710       3.07917429      -0.95843573        1 
H       1.31520073      -1.63644660      -2.50134754        1 
H       0.25063196      -0.28733593      -2.88517032        1 
H       1.95674129       0.01000344      -2.52891234        1 
H       3.66480495       0.41640248       0.81180193        1 
H       3.07925958       0.84402696      -0.81142102        1 
H       1.39311450      -1.88893539       2.10732793        1 
