35
Lattice="0.0 0.0 0.0 0.0 0.0 0.0 0.0 0.0 0.0" Properties=species:S:1:pos:R:3:Z:I:1 pbc="F F F"
C       0.77033144      -0.49551103      -0.75820879        6 
C       0.50182702       1.02330709      -0.27838675        6 
C      -0.35717963      -1.51462566      -0.55685449        6 
C      -0.86782249       1.26906785       0.36161137        6 
O      -1.06459382      -1.32544397       0.56779472        8 
O      -0.57297955      -2.43787158      -1.30832262        8 
O      -1.82564482       1.33826729      -0.59610258        8 
O      -1.12143143       1.34564900       1.53603543        8 
C      -3.17922858       1.45000637      -0.12798936        6 
C      -2.10714233      -2.27589334       0.83997568        6 
C       2.01990151      -0.90166893       0.14685632        6 
C       1.59362823      -0.94777233       1.60340047        6 
C       1.37256392       0.30905368       1.99653975        6 
C       1.64954128       1.21401336       0.80460366        6 
C       2.80538085       0.42782801       0.14826458        6 
C       1.16264415      -0.59575562      -2.24612558        6 
C       0.66679143       2.07701176      -1.39587676        6 
H      -3.43901490       0.58630273       0.48672394        1 
H      -1.68969663      -3.27762402       0.95341510        1 
H       0.96336897       0.64104690       2.93788111        1 
H      -3.79583241       1.48077797      -1.02402078        1 
H      -3.31147538       2.35931271       0.46025791        1 
H      -2.56300682      -1.94149160       1.76924363        1 
H      -2.83763520      -2.28525955       0.02894506        1 
H       1.82386375       2.26471980       1.03612022        1 
H       2.52067640      -1.78750469      -0.24332909        1 
H       1.68467877       2.10007220      -1.78211710        1 
H      -0.01717232       1.90225033      -2.22429771        1 
H       0.44743871       3.06802428      -0.98895110        1 
H       1.42291189      -1.62665112      -2.48340979        1 
H       0.33342736      -0.31360990      -2.89739607        1 
H       2.01612640       0.03539867      -2.48557897        1 
H       3.68692283       0.38045739       0.78817482        1 
H       3.09861447       0.78260531      -0.83985327        1 
H       1.39713634      -1.85387253       2.16046808        1 
