35
Lattice="0.0 0.0 0.0 0.0 0.0 0.0 0.0 0.0 0.0" Properties=species:S:1:pos:R:3:Z:I:1 pbc="F F F"
C      -0.60761742      -0.91008625       0.53651782        6 
C      -0.95403607       0.67925366       0.42675702        6 
C       0.87663190      -1.32858965       0.64879935        6 
C       0.21278177       1.68681053       0.43494419        6 
O       1.58668815      -1.19998268      -0.48142391        8 
O       1.33094872      -1.89327663       1.61963248        8 
O       1.20493708       1.39644560      -0.41821792        8 
O       0.21450355       2.70072685       1.09669526        8 
C       2.27971897       2.34715125      -0.49438601        6 
C       2.95100041      -1.64159860      -0.42817468        6 
C      -1.25702257      -1.44844779      -0.82801143        6 
C      -0.51947131      -0.88652757      -2.03127349        6 
C      -0.80536737       0.41482912      -2.10886919        6 
C      -1.74279480       0.74083547      -0.96252553        6 
C      -2.53526206      -0.58334136      -0.89689576        6 
C      -1.30735560      -1.59817495       1.72602632        6 
C      -1.90268758       1.15883753       1.54561651        6 
H       1.91322131       3.31182839      -0.84968879        1 
H       3.00678396      -2.70085086      -0.17170124        1 
H      -0.37792216       1.14078830      -2.78603463        1 
H       2.98724335       1.92151880      -1.20316596        1 
H       2.74438293       2.48106023       0.48344059        1 
H       3.34824031      -1.46557656      -1.42591441        1 
H       3.50916743      -1.06683993       0.31313676        1 
H      -2.31583101       1.66360532      -1.05406082        1 
H      -1.38874737      -2.53072155      -0.80878791        1 
H      -2.83617436       0.60162018       1.55278449        1 
H      -1.44181149       1.07441223       2.53014389        1 
H      -2.13802052       2.21123703       1.39170414        1 
H      -1.09711376      -2.66807224       1.69658382        1 
H      -0.94021787      -1.22732782       2.68226446        1 
H      -2.38642371      -1.46807646       1.69290974        1 
H      -3.10109582      -0.76283036      -1.81198237        1 
H      -3.20124466      -0.68100294      -0.04130465        1 
H       0.18362605      -1.43932450      -2.63568023        1 
