35
Lattice="0.0 0.0 0.0 0.0 0.0 0.0 0.0 0.0 0.0" Properties=species:S:1:pos:R:3:Z:I:1 pbc="F F F"
C       0.75930420      -0.60498174      -0.64151818        6 
C       0.40480727       0.95981249      -0.42840441        6 
C      -0.15741510      -1.63849874       0.01551572        6 
C      -0.90377961       1.21883749       0.32980128        6 
O      -1.46510934      -1.34175602      -0.11028060        8 
O       0.23320620      -2.67637617       0.49375024        8 
O      -1.94792518       1.38838963      -0.50934919        8 
O      -1.01373657       1.33715102       1.52653482        8 
C      -3.22668342       1.58091740       0.11098921        6 
C      -2.39270487      -2.31794355       0.39807459        6 
C       2.18842203      -0.71128926       0.02618581        6 
C       1.99308938      -0.56283580       1.52810696        6 
C       1.66270625       0.70997911       1.76165985        6 
C       1.65173007       1.43493065       0.42188262        6 
C       2.78806801       0.67033606      -0.29823079        6 
C       0.80081177      -1.03329396      -2.12589547        6 
C       0.34826984       1.76588277      -1.74626749        6 
H      -3.47244853       0.72815804       0.74638749        1 
H      -2.25929840      -2.44394372       1.47325768        1 
H       1.35077596       1.14867986       2.69694826        1 
H      -3.93800096       1.66595936      -0.70825003        1 
H      -3.23041808       2.48796049       0.71754862        1 
H      -3.38087573      -1.91999577       0.17739085        1 
H      -2.24644937      -3.27809983      -0.09886316        1 
H       1.72591934       2.52163818       0.46773437        1 
H       2.73447962      -1.59268221      -0.30467755        1 
H       1.29322072       1.72860755      -2.28512209        1 
H      -0.44039331       1.41292162      -2.40770056        1 
H       0.14087276       2.81457192      -1.51899530        1 
H       1.06855471      -2.09077992      -2.18955673        1 
H      -0.16768913      -0.89591838      -2.61003481        1 
H       1.54784240      -0.46741412      -2.68202364        1 
H       3.75445983       0.81968199       0.18479079        1 
H       2.88711420       0.88531235      -1.36319093        1 
H       1.99944922      -1.38491745       2.22898758        1 
