35
Lattice="0.0 0.0 0.0 0.0 0.0 0.0 0.0 0.0 0.0" Properties=species:S:1:pos:R:3:Z:I:1 pbc="F F F"
C       0.96666264       0.53956656      -0.56731080        6 
C      -0.62314341       0.72481855      -0.38568601        6 
C       1.59164673      -0.86372780      -0.40765572        6 
C      -1.46775133      -0.55268134      -0.36659846        6 
O       1.19919743      -1.53552187       0.68239735        8 
O       2.49611092      -1.25777424      -1.11093309        8 
O      -2.76903853      -0.23511656      -0.13272309        8 
O      -1.10450987      -1.69577537      -0.46643037        8 
C      -3.68620109      -1.33997750      -0.06594135        6 
C       1.73200144      -2.85841561       0.83856831        6 
C       1.48423664       1.42388024       0.67978951        6 
C       1.08628488       0.74890135       1.98464251        6 
C      -0.23879907       0.85882871       2.11022106        6 
C      -0.74566757       1.62585989       0.90397605        6 
C       0.45517226       2.57602093       0.67609294        6 
C       1.52905749       1.11576991      -1.87613322        6 
C      -1.24527161       1.51039258      -1.58773525        6 
H      -3.68981771      -1.89248405      -1.00697480        1 
H       2.82219527      -2.83854549       0.87333035        1 
H      -0.86823437       0.39963147       2.86079009        1 
H      -4.66173281      -0.89522684       0.11966154        1 
H      -3.41324084      -2.01824868       0.74427485        1 
H       1.32095100      -3.22537567       1.77692013        1 
H       1.40670638      -3.49056030       0.01054763        1 
H      -1.73261491       2.07527630       0.99636656        1 
H       2.53649694       1.68614685       0.57367219        1 
H      -0.76490439       2.47201996      -1.74700079        1 
H      -1.16681349       0.94051958      -2.51627281        1 
H      -2.30151424       1.68863169      -1.39170377        1 
H       2.61119484       0.99689530      -1.88791431        1 
H       1.14027000       0.58371784      -2.74626258        1 
H       1.30159945       2.17394103      -1.98764665        1 
H       0.60015293       3.25662338       1.51562027        1 
H       0.42047193       3.15091252      -0.24842597        1 
H       1.75735976       0.18617815       2.61718521        1 
