35
Lattice="0.0 0.0 0.0 0.0 0.0 0.0 0.0 0.0 0.0" Properties=species:S:1:pos:R:3:Z:I:1 pbc="F F F"
C       0.76017510      -0.38985551      -0.78901213        6 
C       0.37910771       1.05441254      -0.22606771        6 
C      -0.11894647      -1.58706077      -0.39906790        6 
C      -1.05160797       1.25675728       0.25214905        6 
O      -1.08642429      -1.32720818       0.49456839        8 
O       0.13091467      -2.71252244      -0.76882481        8 
O      -1.93763035       0.87205473      -0.69564418        8 
O      -1.37054223       1.88750662       1.23088640        8 
C      -3.32395955       1.07689985      -0.39000900        6 
C      -1.80815593      -2.46209196       1.00240577        6 
C       2.11854228      -0.67315273       0.03865106        6 
C       1.70457608      -0.91187625       1.48546867        6 
C       1.28783368       0.25775109       1.97933852        6 
C       1.45718323       1.30126415       0.88913216        6 
C       2.71090584       0.74009061       0.17201620        6 
C       1.00738883      -0.46429373      -2.30103449        6 
C       0.50715959       2.17890520      -1.29928482        6 
H      -3.60819257       0.49382432       0.48837966        1 
H      -1.13006889      -3.14200048       1.52065429        1 
H       0.81351686       0.44196949       2.93308317        1 
H      -3.87012110       0.73160897      -1.26563781        1 
H      -3.52865427       2.13181605      -0.20083507        1 
H      -2.54152431      -2.05203099       1.69330541        1 
H      -2.29946241      -2.99760181       0.18884126        1 
H       1.48177351       2.33690951       1.22261688        1 
H       2.71903482      -1.44976008      -0.43116017        1 
H       1.51759229       2.25565877      -1.69462957        1 
H      -0.17724323       2.01643800      -2.13056700        1 
H       0.25764701       3.13744328      -0.83734371        1 
H       1.28212208      -1.48415363      -2.57019286        1 
H       0.10982312      -0.19349631      -2.86220746        1 
H       1.81623126       0.19957815      -2.60688156        1 
H       3.59285667       0.75152977       0.81361575        1 
H       2.95271917       1.22037669      -0.77606805        1 
H       1.63748385      -1.88602033       1.95224091        1 
