35
Lattice="0.0 0.0 0.0 0.0 0.0 0.0 0.0 0.0 0.0" Properties=species:S:1:pos:R:3:Z:I:1 pbc="F F F"
C       1.01923185       0.37222503      -0.60785885        6 
C      -0.49569983       0.80688391      -0.35323339        6 
C       1.48586444      -1.06433188      -0.29492586        6 
C      -1.57638763      -0.26500582      -0.46274368        6 
O       0.60263259      -1.84694563       0.32825204        8 
O       2.64154590      -1.39497524      -0.45875650        8 
O      -2.70484748       0.14786304       0.17305760        8 
O      -1.50274530      -1.32548861      -1.02579312        8 
C      -3.84018370      -0.72771968       0.06883622        6 
C       1.06157612      -3.15039155       0.71791177        6 
C       1.74411643       1.20455297       0.58136311        6 
C       1.37266541       0.51138606       1.88606234        6 
C       0.07525442       0.74597462       2.10534498        6 
C      -0.42604150       1.63745053       0.98119073        6 
C       0.86110038       2.45712638       0.70501135        6 
C       1.59387428       0.74940364      -1.97854384        6 
C      -1.01194174       1.76623348      -1.48896713        6 
H      -4.13633950      -0.84742639      -0.97507234        1 
H       1.86858010      -3.07224628       1.44893575        1 
H      -0.55128799       0.31579582       2.87527299        1 
H      -4.63313597      -0.24514224       0.63664652        1 
H      -3.60970064      -1.70825510       0.48824196        1 
H       0.19317161      -3.64126536       1.15197648        1 
H       1.41871998      -3.70441377      -0.15110389        1 
H      -1.34500322       2.18573543       1.17726983        1 
H       2.80659295       1.33357400       0.38473915        1 
H      -0.36830633       2.62705805      -1.64548589        1 
H      -1.09783528       1.23593532      -2.43917961        1 
H      -2.00184341       2.13401003      -1.21491732        1 
H       2.63020010       0.41804185      -2.03283469        1 
H       1.04138167       0.26351978      -2.78644157        1 
H       1.57013689       1.82588500      -2.14377713        1 
H       1.14460145       3.07210441       1.56032294        1 
H       0.83182950       3.08135703      -0.18608913        1 
H       2.02310389      -0.15706485       2.43471032        1 
