35
Lattice="0.0 0.0 0.0 0.0 0.0 0.0 0.0 0.0 0.0" Properties=species:S:1:pos:R:3:Z:I:1 pbc="F F F"
C      -0.51077123      -0.99633934       0.22333698        6 
C      -0.70252523       0.49095687       0.77269374        6 
C       0.88980832      -1.41528223      -0.21281497        6 
C       0.39046076       1.52309607       0.45250793        6 
O       1.84327645      -0.88288109       0.58297202        8 
O       1.11536903      -2.32953516      -0.97022097        8 
O       1.06271229       1.27979059      -0.68702528        8 
O       0.54228377       2.54412716       1.08374300        8 
C       2.00213188       2.28018351      -1.10572702        6 
C       3.18312153      -1.34913904       0.36092577        6 
C      -1.62225220      -1.12985606      -0.88180258        6 
C      -1.32530503      -0.16096399      -2.01084041        6 
C      -1.55801408       1.07339322      -1.55509617        6 
C      -1.98499108       0.94958350      -0.10000364        6 
C      -2.77819598      -0.37000671      -0.18472330        6 
C      -0.78215431      -2.07826945       1.31894411        6 
C      -1.01935752       0.60043323       2.26866660        6 
H       1.50326871       3.24003838      -1.24941665        1 
H       3.50750427      -1.09877636      -0.65085983        1 
H      -1.36205335       2.00773821      -2.06407803        1 
H       2.40953556       1.91579788      -2.04669674        1 
H       2.79292973       2.39653733      -0.36280272        1 
H       3.79603978      -0.83301506       1.09676418        1 
H       3.24217952      -2.43001324       0.49785776        1 
H      -2.47809315       1.81774609       0.33574103        1 
H      -1.79561134      -2.16408167      -1.17315000        1 
H      -1.91843978       0.04398246       2.53056632        1 
H      -0.19381404       0.22777400       2.87848542        1 
H      -1.17449558       1.64646263       2.52962264        1 
H      -0.68472153      -3.06723608       0.86760910        1 
H      -0.06618618      -2.00524766       2.13828870        1 
H      -1.78365293      -1.99833263       1.73615304        1 
H      -3.65533667      -0.28031393      -0.82688714        1 
H      -3.08223688      -0.77646300       0.77908362        1 
H      -0.90303089      -0.44412194      -2.96532154        1 
