35
Lattice="0.0 0.0 0.0 0.0 0.0 0.0 0.0 0.0 0.0" Properties=species:S:1:pos:R:3:Z:I:1 pbc="F F F"
C       0.76290292       0.38937068      -0.60788595        6 
C      -0.82531789       0.46569936      -0.40365779        6 
C       1.52499546      -0.79794894       0.02160067        6 
C      -1.62307785      -0.83163655      -0.24598738        6 
O       2.86693660      -0.57659292      -0.13352371        8 
O       1.11703789      -1.77617616       0.58040828        8 
O      -2.89060212      -0.52417156       0.16010465        8 
O      -1.26268053      -1.96396698      -0.40606840        8 
C      -3.78517099      -1.63820245       0.31045866        6 
C       3.72575469      -1.58982360       0.41186986        6 
C       1.21520298       1.62105408       0.34211966        6 
C       1.02934982       1.11473363       1.77041686        6 
C      -0.28664121       1.02872388       1.99157016        6 
C      -0.99561845       1.52847898       0.74347112        6 
C       0.02593898       2.59195888       0.26643921        6 
C       1.23516235       0.56654846      -2.05959049        6 
C      -1.52455695       1.03703571      -1.69267825        6 
H      -3.93339362      -2.14434984      -0.64571441        1 
H       3.55879360      -2.54541438      -0.08884864        1 
H      -0.78194556       0.59348429       2.84924187        1 
H      -4.72274772      -1.21233504       0.66276352        1 
H      -3.39150792      -2.35397395       1.03366029        1 
H       4.74008410      -1.23817516       0.23334597        1 
H       3.54497554      -1.71623448       1.48085120        1 
H      -2.03031042       1.83979979       0.86841483        1 
H       2.20350411       1.99384929       0.08271612        1 
H      -1.06608271       1.95083966      -2.05701638        1 
H      -1.50282835       0.30812381      -2.50605379        1 
H      -2.56705787       1.25108220      -1.45962806        1 
H       2.32207767       0.52887477      -2.10229053        1 
H       0.84136707      -0.22643402      -2.70063300        1 
H       0.91957315       1.52494719      -2.47051726        1 
H       0.12470788       3.40894290       0.98257031        1 
H      -0.16518041       3.00850029      -0.72108303        1 
H       1.82509878       0.75658726       2.41002934        1 
