35
Lattice="0.0 0.0 0.0 0.0 0.0 0.0 0.0 0.0 0.0" Properties=species:S:1:pos:R:3:Z:I:1 pbc="F F F"
C      -0.83659472      -0.75825177      -0.40082598        6 
C       0.69281392      -0.33885074      -0.66690965        6 
C      -1.68122027       0.27726817       0.35966285        6 
C       1.10142932       1.01135096      -0.07548326        6 
O      -2.24709340       1.15913137      -0.49194663        8 
O      -1.85784358       0.31057982       1.55122894        8 
O       2.43350491       1.20357098      -0.22976496        8 
O       0.39825574       1.81324042       0.48541204        8 
C       2.95959543       2.42401856       0.32029479        6 
C      -2.95479864       2.24903084       0.12005875        6 
C      -0.63499618      -2.05092514       0.50049882        6 
C       0.02183488      -1.65014877       1.81656093        6 
C       1.29260514      -1.33140140       1.55242333        6 
C       1.49760100      -1.50149384       0.05612409        6 
C       0.57364222      -2.70687886      -0.20547022        6 
C      -1.62065153      -1.15120645      -1.67401744        6 
C       1.05369953      -0.28875058      -2.16914263        6 
H       2.49288519       3.28919238      -0.15334647        1 
H      -2.27686480       2.81735680       0.75806062        1 
H       2.02123233      -0.91262916       2.23377154        1 
H       4.02647495       2.40117374       0.10882858        1 
H       2.78091802       2.46515341       1.39593783        1 
H      -3.31417530       2.86182776      -0.70442095        1 
H      -3.79177872       1.87880740       0.71463179        1 
H       2.52701149      -1.56349937      -0.29253572        1 
H      -1.54890767      -2.63881517       0.58396325        1 
H       0.84103946      -1.23718531      -2.66019795        1 
H       0.49420153       0.49288237      -2.68840230        1 
H       2.11657505      -0.07659146      -2.28221274        1 
H      -2.64257253      -1.42184941      -1.39644072        1 
H      -1.68557815      -0.33131965      -2.38750516        1 
H      -1.18015754      -2.01357687      -2.17364580        1 
H       0.91632328      -3.60499348       0.30999741        1 
H       0.41846212      -2.93784068      -1.26010741        1 
H      -0.50004428      -1.55213747       2.75553151        1 
