35
Lattice="0.0 0.0 0.0 0.0 0.0 0.0 0.0 0.0 0.0" Properties=species:S:1:pos:R:3:Z:I:1 pbc="F F F"
C       0.71494729       0.35465638      -0.63467533        6 
C      -0.83775389       0.73080598      -0.42587795        6 
C       1.13772204      -0.99915534      -0.06414826        6 
C      -1.67776579      -0.29423587       0.35735656        6 
O       2.45601683      -1.21566945      -0.29894112        8 
O       0.46595257      -1.77763816       0.56337257        8 
O      -2.28873081      -1.15984427      -0.48355563        8 
O      -1.78429794      -0.36913581       1.55430004        8 
C      -2.97650715      -2.25565953       0.14206461        6 
C       2.99563694      -2.43701127       0.23615900        6 
C       1.46642281       1.52994946       0.11755316        6 
C       1.20299806       1.37881818       1.60490743        6 
C      -0.08199424       1.68084994       1.81109189        6 
C      -0.69206890       2.04788823       0.46204885        6 
C       0.53291637       2.71562473      -0.20145423        6 
C       1.12151719       0.33983737      -2.12965082        6 
C      -1.59321226       1.07778359      -1.72603381        6 
H      -2.27182845      -2.84913456       0.72630580        1 
H       2.49359145      -3.30097591      -0.20257302        1 
H      -0.63765337       1.59176271       2.73110163        1 
H      -3.39203909      -2.84244303      -0.67504905        1 
H      -3.77195346      -1.89065588       0.79384710        1 
H       4.04971881      -2.43038872      -0.03285797        1 
H       2.87437919      -2.46655217       1.32015037        1 
H      -1.61929575       2.61994519       0.49669745        1 
H       2.50830497       1.60504137      -0.18956850        1 
H      -1.16069159       1.94311030      -2.22700090        1 
H      -1.61303107       0.24359488      -2.42554674        1 
H      -2.62995818       1.32437781      -1.48486993        1 
H       2.19539149       0.17897709      -2.21403953        1 
H       0.61749870      -0.46340911      -2.67263114        1 
H       0.87697920       1.27983621      -2.62023973        1 
H       0.83740679       3.62585961       0.31624579        1 
H       0.41761581       2.92965558      -1.26468433        1 
H       1.90823926       0.98124323       2.32263549        1 
