35
Lattice="0.0 0.0 0.0 0.0 0.0 0.0 0.0 0.0 0.0" Properties=species:S:1:pos:R:3:Z:I:1 pbc="F F F"
C       0.79053935       0.65131849      -0.46601809        6 
C      -0.79977461       0.53455200      -0.61530696        6 
C       1.42329034      -0.59379623       0.16153994        6 
C      -1.31490426      -0.89433632      -0.47977364        6 
O       2.71856220      -0.74172148      -0.19485864        8 
O       0.88058258      -1.34315133       0.93635783        8 
O      -2.34513506      -1.00043164       0.38022044        8 
O      -0.91195535      -1.81407294      -1.15137628        8 
C      -2.91084022      -2.31794282       0.51184273        6 
C       3.39246819      -1.88179766       0.36873122        6 
C       0.90268241       1.82545443       0.62870039        6 
C       0.38829954       1.29119895       1.95695822        6 
C      -0.93244551       1.13348840       1.83738973        6 
C      -1.32524009       1.58277858       0.44012304        6 
C      -0.29177280       2.71385705       0.22842525        6 
C       1.51832037       1.05073248      -1.75640451        6 
C      -1.32697234       0.92603034      -2.02340683        6 
H      -3.29024218      -2.66819442      -0.44952406        1 
H       2.87044702      -2.80080187       0.09880051        1 
H      -1.60349895       0.66065918       2.53968594        1 
H      -3.72162255      -2.21543968       1.23009118        1 
H      -2.15514891      -3.01427832       0.87708547        1 
H       4.39267880      -1.86697076      -0.05901800        1 
H       3.43755728      -1.80231392       1.45613795        1 
H      -2.37639246       1.82795538       0.29468229        1 
H       1.89448853       2.27696633       0.63520286        1 
H      -1.11784082       1.96498278      -2.27446356        1 
H      -0.90125684       0.28514515      -2.79478220        1 
H      -2.41285725       0.79683682      -2.04421443        1 
H       2.57781944       1.20574869      -1.55677225        1 
H       1.43333027       0.27083264      -2.51565069        1 
H       1.11569529       1.97512147      -2.17116610        1 
H      -0.43653689       3.54283599       0.92208023        1 
H      -0.24003252       3.10189383      -0.78878436        1 
H       1.01243683       0.96619554       2.77812640        1 
