35
Lattice="0.0 0.0 0.0 0.0 0.0 0.0 0.0 0.0 0.0" Properties=species:S:1:pos:R:3:Z:I:1 pbc="F F F"
C       0.82417812       0.49052696      -0.42766447        6 
C      -0.76247700       0.42223973      -0.60115601        6 
C       1.58576301      -0.82950962      -0.30768503        6 
C      -1.48655238      -0.77147832       0.05203239        6 
O       2.82747072      -0.60121252       0.20015742        8 
O       1.19720636      -1.92913622      -0.59374185        8 
O      -2.82921306      -0.63967123      -0.16327100        8 
O      -1.03979508      -1.68287834       0.69130240        8 
C      -3.65648166      -1.65907417       0.41803626        6 
C       3.66556432      -1.76238745       0.33147964        6 
C       1.02729853       1.55245718       0.71367194        6 
C       0.35365735       1.05690309       1.98208446        6 
C      -0.96730914       1.14199927       1.79756493        6 
C      -1.19509126       1.64460194       0.37475543        6 
C      -0.00889675       2.61582178       0.26411280        6 
C       1.51179033       1.04469004      -1.72847981        6 
C      -1.27331696       0.62457389      -2.03455828        6 
H      -3.38485827      -2.64209562       0.02983688        1 
H       3.84853591      -2.21596726      -0.64454997        1 
H      -1.74426704       0.78319472       2.45970071        1 
H      -4.67541170      -1.40352969       0.13312183        1 
H      -3.55349841      -1.66705030       1.50480957        1 
H       4.59628297      -1.40238880       0.76511270        1 
H       3.19616676      -2.50062006       0.98346626        1 
H      -2.19087232       2.01595691       0.14104580        1 
H       2.06459664       1.86487071       0.80986060        1 
H      -0.94165516       1.57808828      -2.44513012        1 
H      -0.92119586      -0.17298003      -2.69367939        1 
H      -2.36153918       0.61558629      -2.04608628        1 
H       2.57432880       1.18813676      -1.52899553        1 
H       1.41401299       0.33614171      -2.55320469        1 
H       1.10238544       1.99574527      -2.05700670        1 
H      -0.08795236       3.43543715       0.97983097        1 
H       0.15046128       3.02886741      -0.73062400        1 
H       0.87135478       0.62322244       2.82697129        1 
