35
Lattice="0.0 0.0 0.0 0.0 0.0 0.0 0.0 0.0 0.0" Properties=species:S:1:pos:R:3:Z:I:1 pbc="F F F"
C       0.41224034      -0.60369667       0.64100289        6 
C      -1.11050915      -0.22714816       0.34240066        6 
C       1.45483963       0.19582610      -0.15926112        6 
C      -1.45544838       1.18810864      -0.13643105        6 
O       2.69714451       0.02841852       0.36402260        8 
O       1.27364231       0.82620898      -1.16883844        8 
O      -0.52364482       2.09514774       0.20816641        8 
O      -2.57481427       1.51586241      -0.46108653        8 
C      -0.86823094       3.47252973      -0.00899650        6 
C       3.76736445       0.64200811      -0.37353831        6 
C       0.47206595      -2.07217633      -0.04880081        6 
C       0.40876763      -1.86733673      -1.55664084        6 
C      -0.82565026      -1.44779648      -1.84894841        6 
C      -1.61953360      -1.41357154      -0.55681805        6 
C      -0.95572623      -2.60293050       0.18508848        6 
C       0.79305139      -0.67921852       2.12345759        6 
C      -1.96994015      -0.22956307       1.65669875        6 
H      -1.08519992       3.64749278      -1.06330401        1 
H       3.61855576       1.72087437      -0.43724986        1 
H      -1.18779933      -1.08938728      -2.80297065        1 
H       0.00756229       4.04006931       0.29828533        1 
H      -1.73868974       3.74944893       0.58869402        1 
H       4.67335835       0.41170370       0.18334314        1 
H       3.82204551       0.23120055      -1.38324829        1 
H      -2.70307673      -1.41846991      -0.65915776        1 
H       1.30615116      -2.66247823       0.32804495        1 
H      -1.88185839      -1.15627289       2.21720042        1 
H      -1.68367113       0.58946207       2.31956415        1 
H      -3.01585935      -0.09227764       1.38386098        1 
H       1.82270826      -1.01636882       2.22533693        1 
H       0.71200717       0.29812235       2.60461007        1 
H       0.15577212      -1.37804527       2.66366191        1 
H      -1.12440142      -3.54938678      -0.33018357        1 
H      -1.23535022      -2.71480146       1.23164405        1 
H       1.25726482      -1.90988692      -2.22595836        1 
