35
Lattice="0.0 0.0 0.0 0.0 0.0 0.0 0.0 0.0 0.0" Properties=species:S:1:pos:R:3:Z:I:1 pbc="F F F"
C       1.01734976       0.51061669      -0.53989149        6 
C      -0.56490661       0.76390821      -0.42005673        6 
C       1.53448088      -0.93367257      -0.37498532        6 
C      -1.44387458      -0.48519941      -0.40836087        6 
O       1.10091177      -1.55869217       0.73045378        8 
O       2.37776580      -1.41605085      -1.09666402        8 
O      -2.71284489      -0.15594806      -0.05947409        8 
O      -1.11587508      -1.62136190      -0.63820542        8 
C      -3.65883978      -1.23862699      -0.02113307        6 
C       1.49437822      -2.93171021       0.87352930        6 
C       1.52739351       1.37446008       0.71930829        6 
C       1.04229065       0.73345144       2.01265939        6 
C      -0.27939192       0.91288485       2.08244802        6 
C      -0.69620971       1.69127957       0.84902111        6 
C       0.55881777       2.57667429       0.66230435        6 
C       1.65506902       1.05194869      -1.82842089        6 
C      -1.12868300       1.53429145      -1.65706674        6 
H      -3.74626255      -1.70673317      -1.00302130        1 
H       2.58095481      -3.02769106       0.88033148        1 
H      -0.96240886       0.49630087       2.81066748        1 
H      -4.60424120      -0.78687770       0.27199853        1 
H      -3.35026028      -1.99057278       0.70692687        1 
H       1.07215924      -3.25560896       1.82284809        1 
H       1.08101263      -3.52129126       0.05351408        1 
H      -1.66264185       2.18941905       0.89571874        1 
H       2.59518518       1.58260569       0.65681053        1 
H      -0.63717316       2.49324605      -1.80547988        1 
H      -1.01164163       0.95199637      -2.57345250        1 
H      -2.19221074       1.72153828      -1.50809926        1 
H       2.73370656       0.90467825      -1.78893267        1 
H       1.29309035       0.51683831      -2.70763969        1 
H       1.46153514       2.11453139      -1.96383403        1 
H       0.70392439       3.26051890       1.49915110        1 
H       0.58945839       3.14045492      -0.26966032        1 
H       1.65747111       0.14367926       2.67655339        1 
