35
Lattice="0.0 0.0 0.0 0.0 0.0 0.0 0.0 0.0 0.0" Properties=species:S:1:pos:R:3:Z:I:1 pbc="F F F"
C       0.74514873      -0.45471693      -0.77575530        6 
C       0.47343273       1.02607351      -0.24168337        6 
C      -0.28252790      -1.54429592      -0.44459275        6 
C      -0.93468853       1.32285589       0.25347006        6 
O      -1.08274605      -1.26186041       0.59795203        8 
O      -0.29380418      -2.62396779      -0.99091631        8 
O      -1.85776384       0.95174763      -0.66476944        8 
O      -1.20330761       1.99113668       1.22183216        8 
C      -3.22704862       1.22907781      -0.33691761        6 
C      -1.98083356      -2.30190937       1.01788833        6 
C       2.04295847      -0.84576692       0.09595405        6 
C       1.60723980      -0.98134041       1.54835743        6 
C       1.31442147       0.24287506       1.99620769        6 
C       1.57736159       1.21763037       0.86229968        6 
C       2.77055070       0.51016915       0.17305837        6 
C       1.05596567      -0.55704671      -2.27533813        6 
C       0.66234186       2.11730585      -1.33662838        6 
H      -3.51458007       0.69206665       0.56924644        1 
H      -1.42386364      -3.19121814       1.31698726        1 
H       0.86278536       0.51166595       2.94058497        1 
H      -3.80775315       0.87632161      -1.18690381        1 
H      -3.38091806       2.29827035      -0.18347875        1 
H      -2.52528598      -1.88738149       1.86358563        1 
H      -2.66441112      -2.56479471       0.20892380        1 
H       1.70098634       2.26002329       1.14987961        1 
H       2.57327913      -1.69396299      -0.33486984        1 
H       1.67769725       2.13117012      -1.72815718        1 
H      -0.02643415       1.97269568      -2.16787399        1 
H       0.46235759       3.09809162      -0.89793266        1 
H       1.27164326      -1.59405947      -2.52972002        1 
H       0.20375649      -0.23640153      -2.87864329        1 
H       1.91765643       0.05108999      -2.54980443        1 
H       3.65151152       0.46604805       0.81439858        1 
H       3.05179837       0.92480049      -0.79487960        1 
H       1.44241988      -1.92302006       2.05567694        1 
