35
Lattice="0.0 0.0 0.0 0.0 0.0 0.0 0.0 0.0 0.0" Properties=species:S:1:pos:R:3:Z:I:1 pbc="F F F"
C       0.93341773       0.65023615      -0.54285644        6 
C      -0.67611917       0.67340985      -0.44858591        6 
C       1.61832326      -0.72998050      -0.44767692        6 
C      -1.34945753      -0.69116794      -0.29946948        6 
O       1.58984411      -1.28527410       0.77421653        8 
O       2.26169727      -1.20643183      -1.35468489        8 
O      -2.69060723      -0.53461468      -0.16890328        8 
O      -0.82798311      -1.77578023      -0.24043773        8 
C      -3.45351621      -1.74063511       0.01177180        6 
C       2.10068789      -2.62370754       0.86543540        6 
C       1.29601137       1.56674126       0.72240771        6 
C       0.85913533       0.88363738       2.01109244        6 
C      -0.47557895       0.90694951       2.05220009        6 
C      -0.95103946       1.61226598       0.79604951        6 
C       0.18711801       2.63983133       0.62238546        6 
C       1.49655992       1.30282870      -1.81891693        6 
C      -1.33156663       1.30029725      -1.71117958        6 
H      -3.33939382      -2.39727484      -0.85215913        1 
H       3.14871018      -2.66331926       0.56501973        1 
H      -1.12004575       0.42454588       2.77503242        1 
H      -4.48717485      -1.41615301       0.11182998        1 
H      -3.12771748      -2.26959694       0.90869621        1 
H       1.98756869      -2.90561521       1.91051791        1 
H       1.51098418      -3.28364236       0.22727483        1 
H      -1.97418251       1.98431905       0.80532627        1 
H       2.33039212       1.90890279       0.69024624        1 
H      -0.96594658       2.30767747      -1.89733808        1 
H      -1.13432761       0.69982336      -2.60209451        1 
H      -2.41027221       1.35309497      -1.57091293        1 
H       2.58576990       1.31700943      -1.76313279        1 
H       1.23267207       0.73479069      -2.71071928        1 
H       1.15217962       2.32743953      -1.94102862        1 
H       0.22551616       3.35035530       1.44920939        1 
H       0.16626886       3.18947821      -0.31826598        1 
H       1.52615877       0.38742573       2.69929799        1 
