35
Lattice="0.0 0.0 0.0 0.0 0.0 0.0 0.0 0.0 0.0" Properties=species:S:1:pos:R:3:Z:I:1 pbc="F F F"
C       1.07492550       0.26940685      -0.60071883        6 
C      -0.38419093       0.88824799      -0.40654709        6 
C       1.33566746      -1.20767516      -0.25372859        6 
C      -1.56340220      -0.06784137      -0.52317120        6 
O       0.29637142      -1.88840752       0.23740050        8 
O       2.45716898      -1.66774677      -0.28028438        8 
O      -2.57678618       0.31208188       0.29270350        8 
O      -1.63669646      -1.01488900      -1.26323525        8 
C      -3.77999295      -0.47161384       0.20605821        6 
C       0.55914757      -3.23098535       0.67553917        6 
C       1.85534300       1.02149540       0.60332159        6 
C       1.35311370       0.38924727       1.89673309        6 
C       0.08646138       0.78161107       2.06459958        6 
C      -0.25778931       1.72081237       0.91989740        6 
C       1.12775393       2.37151510       0.68554290        6 
C       1.73582709       0.54817585      -1.95728382        6 
C      -0.75841555       1.87563793      -1.56829777        6 
H      -4.19941860      -0.42168374      -0.80030555        1 
H       1.26410821      -3.23031718       1.50894087        1 
H      -0.61766775       0.43567621       2.80914955        1 
H      -4.46536208      -0.03239184       0.92812394        1 
H      -3.57599045      -1.51394205       0.45569939        1 
H      -0.40608168      -3.62460428       0.98688986        1 
H       0.96926372      -3.82564021      -0.14142842        1 
H      -1.10738302       2.38110530       1.08025388        1 
H       2.93176161       1.01555821       0.44624597        1 
H      -0.03254066       2.67530243      -1.68832944        1 
H      -0.84378781       1.34553173      -2.51724567        1 
H      -1.72574993       2.33247631      -1.34553829        1 
H       2.72768528       0.09662645      -1.97164913        1 
H       1.15489511       0.11681267      -2.77605376        1 
H       1.84623078       1.61723914      -2.13965685        1 
H       1.45608349       2.95857864       1.54422124        1 
H       1.20410065       2.98263399      -0.21245416        1 
H       1.89641149      -0.34889651       2.47199191        1 
