35
Lattice="0.0 0.0 0.0 0.0 0.0 0.0 0.0 0.0 0.0" Properties=species:S:1:pos:R:3:Z:I:1 pbc="F F F"
C       0.77838138       0.64154010      -0.48577299        6 
C      -0.81777583       0.58437375      -0.62851425        6 
C       1.37259997      -0.64762986       0.08346993        6 
C      -1.37530380      -0.83529317      -0.52603841        6 
O       2.69415845      -0.75298502      -0.17819814        8 
O       0.78623649      -1.45607756       0.76146513        8 
O      -2.26542699      -0.98849101       0.47018363        8 
O      -1.13017678      -1.69826098      -1.33597490        8 
C      -2.82044503      -2.30935888       0.60708401        6 
C       3.34911484      -1.90896957       0.37568856        6 
C       0.95134695       1.76594698       0.64545563        6 
C       0.44446738       1.19407267       1.96014960        6 
C      -0.88194408       1.08030070       1.85672207        6 
C      -1.28620677       1.60132610       0.48637576        6 
C      -0.22100448       2.70800417       0.30474535        6 
C       1.50837313       1.05299707      -1.77250269        6 
C      -1.34381722       1.05805473      -2.00815291        6 
H      -3.35888744      -2.59495460      -0.29819686        1 
H       2.91092771      -2.82235155      -0.02941543        1 
H      -1.55562244       0.60068147       2.55110133        1 
H      -3.49876124      -2.25295056       1.45580614        1 
H      -2.02240692      -3.02839662       0.79565107        1 
H       4.39226613      -1.81934441       0.08068487        1 
H       3.25421902      -1.91900070       1.46264525        1 
H      -2.33133534       1.88747151       0.37578703        1 
H       1.95709594       2.18503184       0.64890745        1 
H      -1.09309888       2.09708560      -2.21484780        1 
H      -0.95645078       0.43310417      -2.81167592        1 
H      -2.43422572       0.97458941      -2.02054858        1 
H       2.57531561       1.15847755      -1.58049481        1 
H       1.38099865       0.30194281      -2.55479571        1 
H       1.13846685       2.00540661      -2.15255558        1 
H      -0.32576091       3.50947710       1.03683094        1 
H      -0.17416620       3.13918733      -0.69545010        1 
H       1.07251592       0.81783792       2.75644724        1 
