35
Lattice="0.0 0.0 0.0 0.0 0.0 0.0 0.0 0.0 0.0" Properties=species:S:1:pos:R:3:Z:I:1 pbc="F F F"
C       0.64410441      -0.67565113      -0.72377783        6 
C       0.71218158       0.89816210      -0.37186397        6 
C      -0.73530889      -1.33391214      -0.55233826        6 
C      -0.52945708       1.54199972       0.24186153        6 
O      -1.07812520      -1.55590215       0.73259869        8 
O      -1.44669072      -1.66015114      -1.47195435        8 
O      -1.67217647       1.06858945      -0.28828558        8 
O      -0.49711831       2.48260374       0.99932947        8 
C      -2.89455787       1.69711821       0.13379644        6 
C      -2.38228303      -2.12028064       0.94120300        6 
C       1.74517588      -1.24170857       0.27489689        6 
C       1.33089833      -0.98768213       1.71944453        6 
C       1.43652359       0.32355427       1.94994506        6 
C       1.91087607       0.96725326       0.65704267        6 
C       2.83260377      -0.15065066       0.13047031        6 
C       1.05687476      -0.99825642      -2.17614032        6 
C       1.00057844       1.79451102      -1.60184469        6 
H      -3.04810392       1.54740314       1.20379970        1 
H      -2.46372368      -3.09528857       0.45821238        1 
H       1.13547714       0.86882277       2.83311942        1 
H      -3.68051954       1.21037306      -0.43976304        1 
H      -2.86750842       2.76653536      -0.07942173        1 
H      -2.48839882      -2.21616879       2.01996861        1 
H      -3.14979513      -1.45836282       0.53650416        1 
H       2.32515425       1.97003392       0.74181478        1 
H       2.02673057      -2.26695630       0.03237000        1 
H       1.96044517       1.54986571      -2.05443273        1 
H       0.22469485       1.69460977      -2.36294561        1 
H       1.03710105       2.83804680      -1.28235832        1 
H       1.08622513      -2.08150460      -2.31021423        1 
H       0.33345266      -0.60643917      -2.88935558        1 
H       2.03977128      -0.60305560      -2.42004548        1 
H       3.68160750      -0.32713404       0.79199793        1 
H       3.19935922      -0.00068815      -0.88477525        1 
H       0.93507825      -1.74114673       2.38398451        1 
