35
Lattice="0.0 0.0 0.0 0.0 0.0 0.0 0.0 0.0 0.0" Properties=species:S:1:pos:R:3:Z:I:1 pbc="F F F"
C       0.66019305      -0.74624428      -0.59283677        6 
C       0.50732097       0.86728470      -0.49372281        6 
C      -0.42200757      -1.48942994       0.19884550        6 
C      -0.71375100       1.27090295       0.34281836        6 
O      -1.56026460      -1.59271961      -0.53333746        8 
O      -0.35148979      -1.88686404       1.33254838        8 
O      -1.74917520       1.66773783      -0.43454456        8 
O      -0.80155832       1.22147196       1.54456428        8 
C      -2.96440468       1.99594917       0.25841426        6 
C      -2.68574784      -2.19408309       0.12932546        6 
C       2.09115991      -0.96525990       0.06306554        6 
C       2.04017294      -0.61462508       1.54280842        6 
C       1.90151866       0.70947665       1.63531937        6 
C       1.86822321       1.26347629       0.22102295        6 
C       2.84167476       0.27641119      -0.46461765        6 
C       0.65247547      -1.28995876      -2.03568322        6 
C       0.43133021       1.55779769      -1.86992016        6 
H      -3.32862800       1.13423637       0.82037867        1 
H      -2.92971704      -1.64649822       1.04107694        1 
H       1.72387915       1.28870405       2.52870896        1 
H      -3.67395076       2.27466646      -0.51786665        1 
H      -2.80236983       2.82574466       0.94805520        1 
H      -3.50457915      -2.14038986      -0.58535201        1 
H      -2.46996821      -3.23260928       0.38584479        1 
H       2.08134380       2.32803207       0.11648295        1 
H       2.50266299      -1.94391670      -0.18583154        1 
H       1.32625941       1.37161843      -2.46196196        1 
H      -0.43568097       1.23451508      -2.44267229        1 
H       0.34732315       2.63790815      -1.72998851        1 
H       0.75154251      -2.37864189      -2.01218534        1 
H      -0.27448110      -1.05452348      -2.55531936        1 
H       1.48647558      -0.89629956      -2.61490911        1 
H       3.85005764       0.34882588      -0.05660656        1 
H       2.89077324       0.35758445      -1.55132455        1 
H       1.99848906      -1.33598405       2.34394410        1 
