35
Lattice="0.0 0.0 0.0 0.0 0.0 0.0 0.0 0.0 0.0" Properties=species:S:1:pos:R:3:Z:I:1 pbc="F F F"
C       0.90503758       0.68382715      -0.54698081        6 
C      -0.70523905       0.65207022      -0.47356404        6 
C       1.60980007      -0.68697494      -0.47530687        6 
C      -1.31227286      -0.73241520      -0.25214699        6 
O       1.75911736      -1.16941834       0.76954479        8 
O       2.12415262      -1.21140391      -1.43585153        8 
O      -2.66104490      -0.64250669      -0.15556455        8 
O      -0.73264996      -1.78159699      -0.12520892        8 
C      -3.36230012      -1.87748121       0.07514451        6 
C       2.29314979      -2.49902747       0.86272265        6 
C       1.22583017       1.60527599       0.71913675        6 
C       0.77999728       0.91586084       2.00210210        6 
C      -0.55534200       0.91677147       2.02251397        6 
C      -1.02216861       1.60589941       0.75328297        6 
C       0.09629157       2.65478161       0.59377741        6 
C       1.45829026       1.35647449      -1.81863118        6 
C      -1.37671030       1.20948370      -1.75399615        6 
H      -3.19089118      -2.57212873      -0.74861473        1 
H       3.28944827      -2.55093316       0.42117627        1 
H      -1.20356484       0.42767074       2.73751305        1 
H      -4.41412759      -1.60576013       0.13410941        1 
H      -3.03062229      -2.33802702       1.00684136        1 
H       2.33180650      -2.72207168       1.92730479        1 
H       1.62820048      -3.19594561       0.35050268        1 
H      -2.05336720       1.95509904       0.74055069        1 
H       2.25302628       1.96973126       0.70695674        1 
H      -1.04886860       2.22500771      -1.96801021        1 
H      -1.15003839       0.59102314      -2.62547455        1 
H      -2.45783003       1.22488451      -1.62195085        1 
H       2.54665243       1.40623679      -1.75106941        1 
H       1.22093747       0.77966485      -2.71163991        1 
H       1.08367143       2.36999869      -1.94380820        1 
H       0.10398143       3.37159068       1.41624034        1 
H       0.07843181       3.19800859      -0.35088535        1 
H       1.44506465       0.43652033       2.70366602        1 
