35
Lattice="0.0 0.0 0.0 0.0 0.0 0.0 0.0 0.0 0.0" Properties=species:S:1:pos:R:3:Z:I:1 pbc="F F F"
C       0.84810699      -0.60171559       0.67534116        6 
C      -0.74653186      -0.67005288       0.44821402        6 
C       1.41945554       0.82572887       0.58988121        6 
C      -1.34969045       0.65837928      -0.00981230        6 
O       2.03289468       1.09934666      -0.57230291        8 
O       1.45848989       1.57141517       1.54173219        8 
O      -2.68155274       0.70728235       0.21725619        8 
O      -0.76893157       1.53825864      -0.59762617        8 
C      -3.36334503       1.87207229      -0.28190045        6 
C       2.49868767       2.44810312      -0.73483190        6 
C       1.35464706      -1.58380202      -0.47058119        6 
C       1.01756952      -1.01280352      -1.83985225        6 
C      -0.30438526      -1.09853127      -2.00326470        6 
C      -0.87366254      -1.72227168      -0.74240864        6 
C       0.27562452      -2.69132921      -0.39057561        6 
C       1.31055027      -1.12988737       2.04880104        6 
C      -1.51721638      -1.18763913       1.67882595        6 
H      -2.96402347       2.77534348       0.18114467        1 
H       3.20626685       2.71133963       0.05249021        1 
H      -0.89305774      -0.69783217      -2.81756422        1 
H      -4.40804598       1.73194370      -0.01261866        1 
H      -3.25123401       1.94450310      -1.36498308        1 
H       2.98020386       2.47323795      -1.71051749        1 
H       1.64905978       3.13194652      -0.70950649        1 
H      -1.88118769      -2.13224025      -0.81188754        1 
H       2.39143960      -1.88586123      -0.32487002        1 
H      -1.14168951      -2.15548959       2.00784803        1 
H      -1.44381592      -0.49359312       2.51858882        1 
H      -2.57215966      -1.30267104       1.43422615        1 
H       2.39927579      -1.05767959       2.11067106        1 
H       0.89856339      -0.53348432       2.86085966        1 
H       1.03915415      -2.17281017       2.19992545        1 
H       0.40979630      -3.45480176      -1.15773790        1 
H       0.18326633      -3.17379064       0.58262282        1 
H       1.72877040      -0.54125136      -2.49997204        1 
