35
Lattice="0.0 0.0 0.0 0.0 0.0 0.0 0.0 0.0 0.0" Properties=species:S:1:pos:R:3:Z:I:1 pbc="F F F"
C       0.34853402       1.07235452       0.16726401        6 
C       0.77641371      -0.33654638       0.86173588        6 
C      -1.02298405       0.99749052      -0.51963297        6 
C      -0.31657979      -1.41743565       0.78708705        6 
O      -1.96574806       1.69774212       0.15504598        8 
O      -1.29506775       0.36340508      -1.50954214        8 
O      -0.39537291      -2.04065418      -0.39498282        8 
O      -1.00011523      -1.73983951       1.73406911        8 
C      -1.44433953      -3.00990865      -0.54475638        6 
C      -3.30239939       1.61469473      -0.36833994        6 
C       1.51419849       1.26077990      -0.90005590        6 
C       1.42239262       0.19288752      -1.97301880        6 
C       1.77718808      -0.96574311      -1.41542413        6 
C       2.09853889      -0.69392812       0.04395949        6 
C       2.72138665       0.71500136      -0.10360003        6 
C       0.36543262       2.26550751       1.14237176        6 
C       1.11650547      -0.19873704       2.35713806        6 
H      -1.31471156      -3.83244888       0.16059466        1 
H      -3.65396390       0.58169679      -0.34848294        1 
H       1.74002405      -1.94587125      -1.86607213        1 
H      -1.36311071      -3.36286628      -1.57057790        1 
H      -2.41598044      -2.54212711      -0.38060024        1 
H      -3.90866231       2.23683901       0.28656588        1 
H      -3.33764687       1.98452299      -1.39423239        1 
H       2.69199825      -1.45346525       0.55352499        1 
H       1.57118760       2.29113760      -1.25280242        1 
H       1.93043771       0.50358977       2.52281876        1 
H       0.25247913       0.12127523       2.93746625        1 
H       1.42416856      -1.17121034       2.74695423        1 
H       0.07125071       3.17320990       0.61231236        1 
H      -0.33065306       2.13225640       1.96896982        1 
H       1.36074485       2.42918569       1.55183829        1 
H       3.62907375       0.69551030      -0.70705876        1 
H       2.92741497       1.22995578       0.83476377        1 
H       1.03161008       0.34744676      -2.96764713        1 
