35
Lattice="0.0 0.0 0.0 0.0 0.0 0.0 0.0 0.0 0.0" Properties=species:S:1:pos:R:3:Z:I:1 pbc="F F F"
C      -0.50777274      -0.88047360       0.48161182        6 
C      -0.66760497       0.72881470       0.61098191        6 
C       0.72848994      -1.31001387      -0.31695857        6 
C       0.38185899       1.54640467      -0.15120024        6 
O       1.81275474      -1.45894572       0.47213981        8 
O       0.75676536      -1.55033522      -1.50047376        8 
O       1.61536147       1.38367590       0.37343913        8 
O       0.16734060       2.28150285      -1.08317365        8 
C       2.67972833       2.08988877      -0.28765538        6 
C       3.02990991      -1.82469625      -0.19512119        6 
C      -1.84712695      -1.26505044      -0.26487132        6 
C      -1.85513202      -0.65907738      -1.65905931        6 
C      -2.01554238       0.65921957      -1.52354016        6 
C      -2.09906602       0.95487242      -0.03379910        6 
C      -2.84357968      -0.31211990       0.43600640        6 
C      -0.45536208      -1.60525210       1.84467962        6 
C      -0.63784122       1.24563937       2.06332058        6 
H       2.74640030       1.78362132      -1.33310175        1 
H       3.29519646      -1.07590031      -0.94360018        1 
H      -1.97841625       1.41053435      -2.29721337        1 
H       3.58472315       1.81797495       0.25159743        1 
H       2.51332813       3.16710309      -0.24123637        1 
H       3.78648401      -1.86971606       0.58564708        1 
H       2.92507364      -2.79457452      -0.68405401        1 
H      -2.52271170       1.92132724       0.23808889        1 
H      -2.05003395      -2.33514288      -0.20774178        1 
H      -1.44668355       0.81830472       2.65494488        1 
H       0.30989270       1.01965171       2.55077637        1 
H      -0.76731470       2.33180537       2.06386498        1 
H      -0.34443167      -2.67983231       1.67737376        1 
H       0.38794897      -1.27954332       2.45032712        1 
H      -1.37024948      -1.45783176       2.41715649        1 
H      -3.84392460      -0.38168601       0.00743541        1 
H      -2.91164816      -0.43058967       1.51849078        1 
H      -1.66306373      -1.20922608      -2.56759963        1 
