35
Lattice="0.0 0.0 0.0 0.0 0.0 0.0 0.0 0.0 0.0" Properties=species:S:1:pos:R:3:Z:I:1 pbc="F F F"
C       0.82649917       0.59184193      -0.49337105        6 
C      -0.76327274       0.48801812      -0.60172764        6 
C       1.57218525      -0.73767196      -0.43576675        6 
C      -1.38601038      -0.78791794      -0.01151822        6 
O       2.59468921      -0.69719732       0.44880790        8 
O       1.31326015      -1.70444435      -1.10433751        8 
O      -2.74319004      -0.68429795      -0.06891645        8 
O      -0.84275200      -1.75454796       0.45119871        8 
C      -3.48051756      -1.80112161       0.45285093        6 
C       3.35133675      -1.91581967       0.57677982        6 
C       1.04510911       1.60214263       0.68672561        6 
C       0.45592979       1.00976050       1.95700397        6 
C      -0.87494972       1.04938960       1.84106776        6 
C      -1.19258945       1.62536167       0.46471702        6 
C      -0.04961967       2.64464109       0.34721021        6 
C       1.47174698       1.19532948      -1.78532431        6 
C      -1.34432214       0.75264038      -1.99639713        6 
H      -3.24412347      -2.70970543      -0.10352008        1 
H       3.83754744      -2.16741874      -0.36734370        1 
H      -1.60522794       0.62290329       2.51632727        1 
H      -4.52951252      -1.53924405       0.32866002        1 
H      -3.24675546      -1.95887437       1.50721335        1 
H       4.09238170      -1.71787067       1.34836380        1 
H       2.69482869      -2.73589323       0.87096270        1 
H      -2.21120937       1.97182216       0.30303013        1 
H       2.07290985       1.95314804       0.75405520        1 
H      -1.03559009       1.72745597      -2.37499470        1 
H      -1.01718884      -0.00997377      -2.70741893        1 
H      -2.43253161       0.73496818      -1.95635003        1 
H       2.55287775       1.26466199      -1.63851134        1 
H       1.28996637       0.55251498      -2.64639583        1 
H       1.10718449       2.19386093      -2.01572683        1 
H      -0.12035879       3.42758350       1.10384508        1 
H       0.04050008       3.10733566      -0.63503678        1 
H       1.03424007       0.55055317       2.74639299        1 
