35
Lattice="0.0 0.0 0.0 0.0 0.0 0.0 0.0 0.0 0.0" Properties=species:S:1:pos:R:3:Z:I:1 pbc="F F F"
C       0.80127613      -0.67152645      -0.59646439        6 
C       0.35226067       0.88048001      -0.49803922        6 
C      -0.15042188      -1.62148173       0.13315485        6 
C      -0.94372816       1.05739443       0.30144517        6 
O      -1.30443710      -1.75587076      -0.56911602        8 
O       0.02464211      -2.15049502       1.19895155        8 
O      -1.89237619       1.73494233      -0.38481225        8 
O      -1.13045195       0.66499694       1.42784921        8 
C      -3.14110204       1.92875983       0.30031921        6 
C      -2.34728688      -2.50892435       0.07437735        6 
C       2.21440572      -0.63842705       0.12294257        6 
C       2.02609732      -0.32785169       1.60109742        6 
C       1.64416077       0.94745595       1.69605369        6 
C       1.58577975       1.51159248       0.28762184        6 
C       2.75185731       0.72708463      -0.35735595        6 
C       0.95639730      -1.20077638      -2.03821136        6 
C       0.22017489       1.55832756      -1.87468207        6 
H      -3.59516465       0.96669844       0.54365355        1 
H      -2.61143377      -2.04273923       1.02489957        1 
H       1.31471716       1.46663792       2.58425336        1 
H      -3.76878638       2.48386838      -0.39369905        1 
H      -2.99145160       2.49439288       1.22131553        1 
H      -3.18854072      -2.48730416      -0.61570926        1 
H      -2.02590779      -3.53594799       0.25345275        1 
H       1.60191341       2.59835096       0.19929544        1 
H       2.81124219      -1.52131980      -0.10687302        1 
H       1.14274719       1.48362309      -2.44750210        1 
H      -0.58587301       1.12450336      -2.46560459        1 
H      -0.00617756       2.61739442      -1.74401463        1 
H       1.24345766      -2.25560253      -2.00490607        1 
H       0.02710959      -1.13233534      -2.60254332        1 
H       1.73614417      -0.66679268      -2.58073705        1 
H       3.71159765       0.97280741       0.09734210        1 
H       2.83099963       0.83367132      -1.43985992        1 
H       2.07233005      -1.05924374       2.39275342        1 
