35
Lattice="0.0 0.0 0.0 0.0 0.0 0.0 0.0 0.0 0.0" Properties=species:S:1:pos:R:3:Z:I:1 pbc="F F F"
C       1.15612432      -0.12917200      -0.52219199        6 
C       0.04556297       1.03213956      -0.51290563        6 
C       0.71504982      -1.56534159      -0.22144935        6 
C      -1.39637961       0.53225187      -0.60822445        6 
O      -0.55287558      -1.69259702       0.19607115        8 
O       1.48012395      -2.50176149      -0.26920732        8 
O      -2.13353883       0.81423903       0.48431544        8 
O      -1.86554759       0.03618506      -1.60498023        8 
C      -3.51044196       0.40517329       0.42910992        6 
C      -0.98499171      -3.01882941       0.54620643        6 
C       2.05526877       0.28877868       0.73823179        6 
C       1.23016632       0.01614521       1.98709417        6 
C       0.24429363       0.91660284       2.01331468        6 
C       0.41465431       1.82291088       0.80325063        6 
C       1.95979792       1.82282017       0.69334728        6 
C       2.00544620      -0.18021256      -1.80219388        6 
C       0.14478145       1.99240690      -1.72922098        6 
H      -4.02447668       0.89631680      -0.39868321        1 
H      -0.38842711      -3.40714315       1.37284552        1 
H      -0.59225692       0.95924189       2.69499930        1 
H      -3.94208373       0.70510042       1.38177760        1 
H      -3.57975808      -0.67590064       0.29818063        1 
H      -2.02736228      -2.91479113       0.83932270        1 
H      -0.89274348      -3.68651191      -0.31103753        1 
H      -0.08564854       2.78885514       0.86192940        1 
H       3.04128298      -0.17030471       0.69570786        1 
H       1.11862083       2.47045144      -1.80753895        1 
H      -0.06792913       1.46798917      -2.65945066        1 
H      -0.60265693       2.78366632      -1.61974099        1 
H       2.74499581      -0.97551881      -1.71159563        1 
H       1.38817442      -0.39020116      -2.67866303        1 
H       2.53014683       0.76028254      -1.96932596        1 
H       2.43549989       2.28753821       1.55802453        1 
H       2.35614438       2.27170701      -0.21723918        1 
H       1.35932752      -0.83801153       2.63897854        1 
