35
Lattice="0.0 0.0 0.0 0.0 0.0 0.0 0.0 0.0 0.0" Properties=species:S:1:pos:R:3:Z:I:1 pbc="F F F"
C      -0.66636411      -0.23921263      -0.74105523        6 
C       0.74312951      -0.90700700      -0.30459312        6 
C      -0.91629776       1.19680707      -0.24784616        6 
C       1.71304507       0.00801753       0.45041223        6 
O      -2.18667017       1.34396265       0.19831758        8 
O      -0.17318339       2.13810768      -0.37229282        8 
O       2.26349311       0.92245324      -0.36253707        8 
O       2.06648287      -0.15321257       1.59590308        8 
C       3.14505618       1.87534424       0.24982542        6 
C      -2.58325302       2.68262537       0.54276828        6 
C      -1.69418087      -1.25009134      -0.06921083        6 
C      -1.59302322      -1.06483024       1.44122214        6 
C      -0.41694508      -1.56498201       1.82861055        6 
C       0.27376039      -2.11251778       0.58970511        6 
C      -0.95526047      -2.59434778      -0.21352419        6 
C      -0.88340846      -0.15092857      -2.26528201        6 
C       1.55925082      -1.44663961      -1.50681714        6 
H       2.60410478       2.45677811       0.99795719        1 
H      -2.48353741       3.34499228      -0.31869685        1 
H       0.03466534      -1.51546527       2.80797099        1 
H       3.48007477       2.52077338      -0.55896868        1 
H       3.99090230       1.37149448       0.72050454        1 
H      -3.62432762       2.60529799       0.84928401        1 
H      -1.96942057       3.06443680       1.35976506        1 
H       1.07362188      -2.83009656       0.76761248        1 
H      -2.69283259      -1.17560202      -0.49571996        1 
H       1.02327743      -2.22631291      -2.04674685        1 
H       1.81659739      -0.65272780      -2.20490121        1 
H       2.49103990      -1.88483685      -1.13861748        1 
H      -1.87015585       0.27341474      -2.46889136        1 
H      -0.13593318       0.48869286      -2.73680890        1 
H      -0.84501964      -1.13535224      -2.73137463        1 
H      -1.48401325      -3.40785241       0.28544776        1 
H      -0.74536444      -2.88829279      -1.24304317        1 
H      -2.30963948      -0.52291474       2.04061771        1 
