35
Lattice="0.0 0.0 0.0 0.0 0.0 0.0 0.0 0.0 0.0" Properties=species:S:1:pos:R:3:Z:I:1 pbc="F F F"
C      -0.64079282       0.47358499      -0.82843557        6 
C      -0.52626132      -1.04225990      -0.24070034        6 
C       0.62999553       1.30915447      -0.60734906        6 
C       0.76243624      -1.32509309       0.54023331        6 
O       0.55778822       2.15281131       0.44049695        8 
O       1.60549530       1.24799800      -1.31697976        8 
O       1.82038419      -1.42350913      -0.28510179        8 
O       0.84502336      -1.50341984       1.73230955        8 
C       3.09557485      -1.65707926       0.33324917        6 
C       1.73141166       2.94442837       0.69473668        6 
C      -1.93465966       0.99071779      -0.07644249        6 
C      -1.68061500       1.07432284       1.42281804        6 
C      -1.59141808      -0.17335763       1.88727860        6 
C      -1.78908423      -1.11118954       0.70689341        6 
C      -2.80818058      -0.28624856      -0.11061853        6 
C      -0.86879349       0.51913048      -2.35509411        6 
C      -0.62242397      -2.13768182      -1.32672237        6 
H       3.32828523      -0.85530620       1.03591514        1 
H       1.96002820       3.57700297      -0.16416221        1 
H      -1.32593629      -0.49007792       2.88412811        1 
H       3.81410133      -1.66891697      -0.48287720        1 
H       3.09464066      -2.61018051       0.86476600        1 
H       1.48847101       3.54878394       1.56604556        1 
H       2.58709332       2.30003570       0.90192932        1 
H      -2.05836512      -2.13814535       0.95363277        1 
H      -2.34709889       1.88754457      -0.53999562        1 
H      -1.57995979      -2.10497399      -1.84520516        1 
H       0.17713731      -2.04953318      -2.06038137        1 
H      -0.53783856      -3.12079898      -0.85488151        1 
H      -0.97364401       1.55997641      -2.67351146        1 
H      -0.02298678       0.09770376      -2.89580662        1 
H      -1.77548053      -0.00732442      -2.64667753        1 
H      -3.75078429      -0.15341418       0.42147155        1 
H      -3.01510318      -0.67504782      -1.10828514        1 
H      -1.50932052       1.99196321       1.96450794        1 
