35
Lattice="0.0 0.0 0.0 0.0 0.0 0.0 0.0 0.0 0.0" Properties=species:S:1:pos:R:3:Z:I:1 pbc="F F F"
C      -0.46023219      -0.92018548       0.45335006        6 
C      -0.69623031       0.66992531       0.64464168        6 
C       0.82530015      -1.31593857      -0.28283322        6 
C       0.26291834       1.63145413      -0.07130984        6 
O       1.89194447      -1.34457426       0.54110770        8 
O       0.88613468      -1.68634233      -1.43153420        8 
O       1.56063037       1.33028200       0.11492066        8 
O      -0.09446351       2.61306848      -0.67798782        8 
C       2.51118500       2.21986225      -0.49873717        6 
C       3.14237096      -1.69852738      -0.06580304        6 
C      -1.74251526      -1.33090733      -0.36574836        6 
C      -1.72356323      -0.63413070      -1.71801547        6 
C      -1.97162255       0.66136128      -1.50771845        6 
C      -2.13312594       0.85285555      -0.00658505        6 
C      -2.81751869      -0.48001364       0.35135796        6 
C      -0.44129867      -1.70380420       1.78953742        6 
C      -0.68526431       1.13051725       2.11632038        6 
H       2.36434304       2.24452592      -1.57946136        1 
H       3.38791986      -0.99873085      -0.86691483        1 
H      -1.94641749       1.46556881      -2.22800010        1 
H       3.48858923       1.81076867      -0.25213361        1 
H       2.40399856       3.22909133      -0.09863560        1 
H       3.87991986      -1.64184758       0.73211052        1 
H       3.09885726      -2.70798789      -0.47831561        1 
H      -2.61735528       1.77461781       0.31027873        1 
H      -1.88687614      -2.41107663      -0.39038975        1 
H      -1.45878894       0.62639738       2.69529621        1 
H       0.28049235       0.94000778       2.58672320        1 
H      -0.88408014       2.20444820       2.16178512        1 
H      -0.28605680      -2.76548556       1.57909832        1 
H       0.36479162      -1.37755111       2.44337669        1 
H      -1.38274594      -1.61464856       2.32922579        1 
H      -3.79634549      -0.57625088      -0.12068148        1 
H      -2.92131715      -0.66857522       1.42077731        1 
H      -1.45840833      -1.11565861      -2.64720617        1 
