35
Lattice="0.0 0.0 0.0 0.0 0.0 0.0 0.0 0.0 0.0" Properties=species:S:1:pos:R:3:Z:I:1 pbc="F F F"
C       0.49544566      -0.89127493       0.33060219        6 
C      -0.95215792      -0.24826861       0.73528993        6 
C       1.61460549       0.04583726      -0.17215539        6 
C      -1.20147513       1.27882376       0.69097919        6 
O       2.82149113      -0.29389173       0.35748889        8 
O       1.51642397       0.95339097      -0.95573846        8 
O      -0.81147003       1.87788844      -0.43273611        8 
O      -1.84287096       1.86122086       1.54053697        8 
C      -1.12069383       3.27319413      -0.56494869        6 
C       3.93916290       0.48806070      -0.09347720        6 
C       0.08172261      -1.81544081      -0.91638926        6 
C      -0.35516268      -0.93085475      -2.06743336        6 
C      -1.53934540      -0.40661594      -1.74117449        6 
C      -1.90477978      -0.92857398      -0.36394224        6 
C      -1.29201389      -2.34150037      -0.45417735        6 
C       1.06203632      -1.79826272       1.44395288        6 
C      -1.42449138      -0.68947308       2.13638500        6 
H      -2.20149376       3.42816467      -0.57086464        1 
H       3.79938883       1.53955116       0.16248510        1 
H      -2.09233319       0.34494633      -2.28564650        1 
H      -0.68112298       3.57127403      -1.51420740        1 
H      -0.68363217       3.84243706       0.25654928        1 
H       4.80481238       0.07932459       0.42389645        1 
H       4.06002972       0.39966354      -1.17452211        1 
H      -2.95448624      -0.85312032      -0.08027858        1 
H       0.85288534      -2.55399392      -1.13637348        1 
H      -1.47078789      -1.77100456       2.23348999        1 
H      -0.77510659      -0.30018710       2.92207930        1 
H      -2.42031890      -0.28976237       2.31792344        1 
H       1.94602868      -2.31904382       1.08020428        1 
H       1.36146938      -1.22418640       2.32181949        1 
H       0.34259996      -2.54862139       1.76074662        1 
H      -1.77503385      -2.94537734      -1.22346941        1 
H      -1.27991023      -2.89949963       0.48061683        1 
H       0.25159391      -0.68802310      -2.92788698        1 
