35
Lattice="0.0 0.0 0.0 0.0 0.0 0.0 0.0 0.0 0.0" Properties=species:S:1:pos:R:3:Z:I:1 pbc="F F F"
C       0.73244576      -0.84337195      -0.48251481        6 
C       0.85194021       0.78349918      -0.44971210        6 
C      -0.64439660      -1.53969481      -0.57186941        6 
C      -0.41861753       1.65816127      -0.51655228        6 
O      -1.51303776      -1.22598147       0.39845401        8 
O      -0.87980937      -2.42680506      -1.36373126        8 
O      -1.37252417       1.34343672       0.36765992        8 
O      -0.51130240       2.63300693      -1.23049420        8 
C      -2.54129364       2.17854119       0.37050902        6 
C      -2.75440468      -1.94866074       0.39614306        6 
C       1.41135235      -1.22640427       0.91907944        6 
C       0.56175248      -0.72221252       2.07198817        6 
C       0.66249190       0.60902029       2.09404507        6 
C       1.58309382       1.01289394       0.95713033        6 
C       2.55324489      -0.18822234       0.97781041        6 
C       1.56146459      -1.47165657      -1.62363494        6 
C       1.76136263       1.33189384      -1.57046380        6 
H      -2.28289433       3.20518494       0.63556505        1 
H      -2.57972998      -3.01802609       0.52773965        1 
H       0.11081610       1.29632267       2.71926281        1 
H      -3.20110936       1.74346269       1.11862405        1 
H      -3.01810531       2.17470224      -0.61096087        1 
H      -3.32090781      -1.54606030       1.23350791        1 
H      -3.29051815      -1.79137644      -0.54133078        1 
H       2.01683275       2.01080425       1.01891280        1 
H       1.68812784      -2.28055954       0.94971558        1 
H       2.75133764       0.88442285      -1.55280393        1 
H       1.32513263       1.16937642      -2.55656327        1 
H       1.87443632       2.40809267      -1.44732704        1 
H       1.51882617      -2.55715388      -1.54543042        1 
H       1.16202053      -1.20655011      -2.60295115        1 
H       2.60415327      -1.16988260      -1.58407415        1 
H       3.10607096      -0.24661333       1.91575283        1 
H       3.25485180      -0.23104797       0.14678400        1 
H      -0.08526433      -1.33958587       2.67797170        1 
