35
Lattice="0.0 0.0 0.0 0.0 0.0 0.0 0.0 0.0 0.0" Properties=species:S:1:pos:R:3:Z:I:1 pbc="F F F"
C       1.17057487       0.16500146      -0.49488393        6 
C      -0.23372390       0.93481494      -0.47534018        6 
C       1.13679878      -1.35609283      -0.28470405        6 
C      -1.45127425       0.02496087      -0.53992867        6 
O       0.24575123      -1.76336906       0.63638525        8 
O       1.91285577      -2.11817787      -0.81319869        8 
O      -2.47280304       0.50051165       0.20388657        8 
O      -1.54052272      -0.96415195      -1.22608830        8 
C      -3.70412725      -0.24159699       0.12651972        6 
C       0.12886098      -3.18364288       0.81911854        6 
C       1.87697738       0.82406198       0.79084397        6 
C       1.13259555       0.39680586       2.04641141        6 
C      -0.05309363       1.01178047       2.04102621        6 
C      -0.11513414       1.86860435       0.78894402        6 
C       1.37309559       2.27805169       0.67974367        6 
C       2.01566494       0.41987445      -1.75043762        6 
C      -0.46571575       1.82852803      -1.73218909        6 
H      -4.06801744      -0.27239194      -0.90177788        1 
H       1.08441367      -3.61634717       1.11857484        1 
H      -0.88080262       0.85312513       2.71806760        1 
H      -4.40472622       0.29080974       0.76617921        1 
H      -3.55563663      -1.26168325       0.48362301        1 
H      -0.61523241      -3.31345983       1.60241480        1 
H      -0.20681447      -3.65138690      -0.10778514        1 
H      -0.85622649       2.66635822       0.79019104        1 
H       2.95360476       0.65661477       0.78605182        1 
H       0.28987336       2.60684274      -1.82586205        1 
H      -0.46921016       1.23481939      -2.64663346        1 
H      -1.43776677       2.32079675      -1.64309820        1 
H       2.97933445      -0.07755168      -1.64948374        1 
H       1.53109521       0.00971449      -2.63828534        1 
H       2.19039214       1.48247398      -1.91159024        1 
H       1.69362821       2.89064558       1.52307227        1 
H       1.64378070       2.77755994      -0.25017431        1 
H       1.46975818      -0.36650066       2.73400818        1 
