35
Lattice="0.0 0.0 0.0 0.0 0.0 0.0 0.0 0.0 0.0" Properties=species:S:1:pos:R:3:Z:I:1 pbc="F F F"
C       0.85284920       0.66722327      -0.50772514        6 
C      -0.77092947       0.64538423      -0.56588719        6 
C       1.51180490      -0.71433639      -0.40529781        6 
C      -1.41552972      -0.74163550      -0.45424122        6 
O       2.10940281      -0.94207636       0.78659989        8 
O       1.55183295      -1.51179670      -1.30721949        8 
O      -2.27160383      -0.84280180       0.58961899        8 
O      -1.28661786      -1.62281999      -1.26562765        8 
C      -3.00139789      -2.07979873       0.67871876        6 
C       2.76163629      -2.21854731       0.91852689        6 
C       1.11146676       1.62329166       0.72144594        6 
C       0.60696962       0.96637195       1.99819875        6 
C      -0.72630610       0.96180740       1.94565548        6 
C      -1.13464013       1.61381051       0.63218461        6 
C      -0.01078818       2.66480591       0.50921417        6 
C       1.49910214       1.26870080      -1.77922895        6 
C      -1.35223013       1.19393643      -1.89028911        6 
H      -3.62307493      -2.22056091      -0.20731696        1 
H       3.55915494      -2.31792170       0.18063883        1 
H      -1.41289889       0.50148069       2.64004673        1 
H      -3.61852444      -1.98842197       1.57002054        1 
H      -2.31590450      -2.92357152       0.76830114        1 
H       3.16649763      -2.23432494       1.92823836        1 
H       2.04420088      -3.02809152       0.77646309        1 
H      -2.16268936       1.97001056       0.57714158        1 
H       2.13724780       1.99017446       0.74773728        1 
H      -1.04668106       2.22340385      -2.07107031        1 
H      -1.05085365       0.57754353      -2.73706796        1 
H      -2.44452355       1.17862463      -1.83704296        1 
H       2.58494069       1.29305509      -1.65167706        1 
H       1.28272075       0.65551016      -2.65285031        1 
H       1.16681500       2.28835934      -1.96561114        1 
H      -0.04737414       3.40250455       1.31198813        1 
H       0.02304505       3.18503903      -0.44876127        1 
H       1.23851110       0.51061794       2.74549058        1 
