35
Lattice="0.0 0.0 0.0 0.0 0.0 0.0 0.0 0.0 0.0" Properties=species:S:1:pos:R:3:Z:I:1 pbc="F F F"
C       1.12915276      -0.22036189      -0.52274106        6 
C       0.10805328       1.02431986      -0.54050050        6 
C       0.60602053      -1.61094424      -0.14013970        6 
C      -1.37552264       0.64859443      -0.58973260        6 
O      -0.71234038      -1.69254111       0.08085084        8 
O       1.34942696      -2.55530296       0.00278864        8 
O      -2.03860047       0.92905367       0.55050263        8 
O      -1.92914916       0.23898264      -1.58198331        8 
C      -3.44020879       0.61218193       0.55041995        6 
C      -1.22313580      -2.98142350       0.46491800        6 
C       2.09682669       0.18419525       0.68541002        6 
C       1.28689560       0.00209023       1.96187556        6 
C       0.36427162       0.96738221       1.98276301        6 
C       0.56291783       1.82548637       0.74085072        6 
C       2.10064884       1.71948669       0.59521165        6 
C       1.91829364      -0.40392600      -1.83100558        6 
C       0.26589086       1.92893665      -1.79199607        6 
H      -3.96637284       1.19078256      -0.21057451        1 
H      -0.80691204      -3.28415353       1.42692519        1 
H      -0.44796647       1.08795500       2.68403438        1 
H      -3.79767805       0.87163362       1.54491231        1 
H      -3.58797697      -0.45061635       0.35317676        1 
H      -2.30127226      -2.85498169       0.53463222        1 
H      -0.97286181      -3.72920244      -0.28829475        1 
H       0.13006464       2.82436739       0.78280078        1 
H       3.04794279      -0.34181072       0.63398602        1 
H       1.27576904       2.31532816      -1.90818500        1 
H      -0.01293957       1.39166015      -2.69677057        1 
H      -0.40692505       2.78619685      -1.69851729        1 
H       2.60071671      -1.24702935      -1.72187297        1 
H       1.24979655      -0.60887536      -2.67074437        1 
H       2.50431185       0.48304449      -2.06991138        1 
H       2.62813478       2.17578082       1.43399871        1 
H       2.50327613       2.11428864      -0.33734625        1 
H       1.38116860      -0.83830948       2.63670841        1 
