35
Lattice="0.0 0.0 0.0 0.0 0.0 0.0 0.0 0.0 0.0" Properties=species:S:1:pos:R:3:Z:I:1 pbc="F F F"
C       0.70651381      -0.35152356      -0.79100173        6 
C       0.34978735       1.06413190      -0.15089576        6 
C      -0.11565020      -1.60123555      -0.41642300        6 
C      -1.09689369       1.38944101       0.22494061        6 
O      -1.01006111      -1.45560967       0.57125102        8 
O       0.16015350      -2.69043391      -0.87236012        8 
O      -1.98653447       0.65393672      -0.47223261        8 
O      -1.42165700       2.40958505       0.78992215        8 
C      -3.36108112       1.05932248      -0.37908852        6 
C      -1.62433654      -2.66367241       1.04663076        6 
C       2.09451080      -0.65861931       0.00194592        6 
C       1.70946083      -0.98086003       1.44210282        6 
C       1.28381753       0.15343822       2.00531409        6 
C       1.42632959       1.25873783       0.97349099        6 
C       2.68076236       0.74705618       0.21817217        6 
C       0.91098154      -0.37129594      -2.30999267        6 
C       0.55181291       2.21675230      -1.20526973        6 
H      -3.70462102       1.01098486       0.65541334        1 
H      -0.87632321      -3.32135017       1.49385287        1 
H       0.82800515       0.27451736       2.97890265        1 
H      -3.91284203       0.35312388      -0.99635563        1 
H      -3.48908695       2.07786491      -0.75013307        1 
H      -2.34860828      -2.34522057       1.79359627        1 
H      -2.11829219      -3.19147569       0.22993849        1 
H       1.44143840       2.27607857       1.35904755        1 
H       2.69583661      -1.40207958      -0.51749703        1 
H       1.52899118       2.18563055      -1.67785784        1 
H      -0.20088096       2.16577922      -1.99444831        1 
H       0.44442979       3.17506036      -0.69771348        1 
H       1.14260643      -1.38810630      -2.62475047        1 
H       0.00716070      -0.05088226      -2.83382149        1 
H       1.73295448       0.27435856      -2.61705406        1 
H       3.56116940       0.71981059       0.86143516        1 
H       2.92757050       1.28621497      -0.69460898        1 
H       1.66545890      -1.97914827       1.85766255        1 
