35
Lattice="0.0 0.0 0.0 0.0 0.0 0.0 0.0 0.0 0.0" Properties=species:S:1:pos:R:3:Z:I:1 pbc="F F F"
C      -0.74098652       0.86066613       0.35314862        6 
C       0.72871895       0.29416693       0.69220260        6 
C      -1.62375201      -0.13197246      -0.42338086        6 
C       0.95715595      -1.15132361       0.26275161        6 
O      -2.58988908      -0.66317152       0.35373325        8 
O      -1.49778430      -0.42394069      -1.58720729        8 
O       2.26565977      -1.39111725       0.02730592        8 
O       0.11434688      -2.01190341       0.19176131        8 
C       2.59769517      -2.74205325      -0.34469943        6 
C      -3.36384825      -1.71320192      -0.25018265        6 
C      -0.35777711       2.08312800      -0.59580156        6 
C       0.29962228       1.55483799      -1.86379010        6 
C       1.51701518       1.11302670      -1.53653119        6 
C       1.68139764       1.31933746      -0.04145340        6 
C       0.88891021       2.63073859       0.13224027        6 
C      -1.51674127       1.38204700       1.57673032        6 
C       1.03839359       0.26456493       2.21025512        6 
H       2.32785595      -3.43580863       0.45325627        1 
H      -2.70485819      -2.52530347      -0.55976940        1 
H       2.21741746       0.58403053      -2.16780688        1 
H       3.67339283      -2.74218372      -0.50633457        1 
H       2.06986348      -3.02375333      -1.25694677        1 
H      -4.05234713      -2.04696769       0.52366536        1 
H      -3.91189522      -1.33926829      -1.11654706        1 
H       2.69925482       1.28921170       0.34288036        1 
H      -1.19471976       2.76634306      -0.74324932        1 
H       0.98630175       1.25985521       2.64968009        1 
H       0.34559553      -0.38678843       2.74649854        1 
H       2.05099748      -0.11542844       2.36157157        1 
H      -2.47307869       1.79578445       1.25020083        1 
H      -1.73349378       0.58806714       2.28924742        1 
H      -0.97578093       2.17309160       2.09415910        1 
H       1.34970673       3.46056533      -0.40543118        1 
H       0.72043200       2.92548073       1.16847464        1 
H      -0.19276498       1.47099811      -2.82046201        1 
