35
Lattice="0.0 0.0 0.0 0.0 0.0 0.0 0.0 0.0 0.0" Properties=species:S:1:pos:R:3:Z:I:1 pbc="F F F"
C       0.15453254       1.16026237       0.19035708        6 
C       0.76359096      -0.19370782       0.85639591        6 
C      -1.15506096       0.85123963      -0.54461098        6 
C      -0.16917719      -1.39105285       0.63512296        6 
O      -2.23409124       1.17862750       0.19320914        8 
O      -1.25140049       0.34510443      -1.63813688        8 
O       0.23719659      -2.24330394      -0.31655791        8 
O      -1.15681372      -1.59048645       1.30713188        8 
C      -0.63731328      -3.35155138      -0.59465862        6 
C      -3.50956184       0.77903453      -0.33713499        6 
C       1.32048624       1.57629989      -0.79203164        6 
C       1.48054191       0.54751570      -1.89926374        6 
C       2.00189336      -0.55146038      -1.35192033        6 
C       2.17555583      -0.28470225       0.13550368        6 
C       2.55428295       1.21245770       0.06941841        6 
C      -0.09058872       2.29475318       1.20521052        6 
C       0.95018935      -0.10782931       2.38303736        6 
H      -0.78320830      -3.96052148       0.29867221        1 
H      -3.56213687      -0.30937017      -0.39492255        1 
H       2.17215542      -1.50411749      -1.82961650        1 
H      -0.13865923      -3.92287263      -1.37463831        1 
H      -1.60222316      -2.98530902      -0.94765916        1 
H      -4.24645168       1.15761247       0.36785725        1 
H      -3.66637691       1.20544651      -1.32866950        1 
H       2.85907742      -0.95046855       0.66300591        1 
H       1.22611027       2.61343179      -1.11589063        1 
H       1.61624965       0.70634369       2.66548901        1 
H      -0.00436096       0.01977987       2.89133889        1 
H       1.39484535      -1.04022608       2.74243102        1 
H      -0.50016024       3.16357612       0.68399815        1 
H      -0.80390879       2.00930151       1.97560407        1 
H       0.83540471       2.60561859       1.68588898        1 
H       3.48927105       1.37604197      -0.46726638        1 
H       2.60343966       1.71525848       1.03524812        1 
H       1.13260297       0.67412565      -2.91347700        1 
