35
Lattice="0.0 0.0 0.0 0.0 0.0 0.0 0.0 0.0 0.0" Properties=species:S:1:pos:R:3:Z:I:1 pbc="F F F"
C       0.77222773      -0.37750511      -0.78838971        6 
C       0.35119773       1.06299565      -0.23835612        6 
C      -0.06104726      -1.60010522      -0.37708617        6 
C      -1.08006882       1.22322974       0.25607494        6 
O      -1.09845065      -1.35148572       0.43699924        8 
O       0.27628686      -2.72657153      -0.66537813        8 
O      -1.96613024       0.87832792      -0.70637396        8 
O      -1.40240738       1.78225386       1.27630696        8 
C      -3.35318601       1.03156039      -0.37579041        6 
C      -1.78594156      -2.49924493       0.96448605        6 
C       2.14397962      -0.61113923       0.03098353        6 
C       1.73696099      -0.85846857       1.47865178        6 
C       1.28395232       0.29969842       1.96779919        6 
C       1.42428457       1.34453306       0.87372799        6 
C       2.69288172       0.81831360       0.15769850        6 
C       1.00429957      -0.46146991      -2.30274669        6 
C       0.44612268       2.18094068      -1.31990612        6 
H      -3.61697463       0.38068121       0.46039483        1 
H      -1.09483907      -3.13337024       1.52146459        1 
H       0.80324711       0.47368895       2.92006333        1 
H      -3.90089777       0.73904585      -1.26949114        1 
H      -3.57718148       2.06548357      -0.10883654        1 
H      -2.55414090      -2.09794582       1.62184046        1 
H      -2.23344731      -3.07969456       0.15633840        1 
H       1.41885540       2.38157691       1.20415488        1 
H       2.76601701      -1.37144964      -0.43687336        1 
H       1.45396328       2.28624965      -1.71540828        1 
H      -0.23365057       1.99196238      -2.14895191        1 
H       0.16791686       3.13566766      -0.86570271        1 
H       1.31204079      -1.47453989      -2.56299358        1 
H       0.09205580      -0.22752278      -2.85704010        1 
H       1.78671606       0.22595933      -2.62483041        1 
H       3.57493296       0.85896887       0.79803429        1 
H       2.91959389       1.30070351      -0.79315031        1 
H       1.70110784      -1.83296715       1.94780341        1 
