35
Lattice="0.0 0.0 0.0 0.0 0.0 0.0 0.0 0.0 0.0" Properties=species:S:1:pos:R:3:Z:I:1 pbc="F F F"
C      -0.92478703      -0.65820931      -0.27984545        6 
C       0.57793380      -0.32404917      -0.69970204        6 
C      -1.81770031       0.44951280       0.27965937        6 
C       1.24765802       0.84595684       0.05526121        6 
O      -1.63018150       1.61729358      -0.35740427        8 
O      -2.79747733       0.22916164       0.95591928        8 
O       2.59528404       0.77373919      -0.13628449        8 
O       0.74997536       1.74673489       0.67625958        8 
C       3.37096363       1.80461973       0.49416572        6 
C      -2.53674627       2.67797762      -0.02139042        6 
C      -0.78235528      -1.91892131       0.63637285        6 
C       0.07275933      -1.55753837       1.84105820        6 
C       1.33261623      -1.41883706       1.41330294        6 
C       1.32265300      -1.62885548      -0.10063943        6 
C       0.24982996      -2.72676738      -0.18985369        6 
C      -1.79855650      -1.06181272      -1.52274076        6 
C       0.82624611      -0.13836741      -2.20211999        6 
H       3.07296262       2.78902239       0.12965210        1 
H      -2.47820184       2.90220158       1.04446287        1 
H       2.19004433      -1.09173089       1.98579717        1 
H       4.40487703       1.59394573       0.22824204        1 
H       3.24018963       1.77322337       1.57755051        1 
H      -2.20848787       3.53440474      -0.60630832        1 
H      -3.56230213       2.40426278      -0.27721967        1 
H       2.28583161      -1.81166748      -0.57181359        1 
H      -1.74171736      -2.38342836       0.85320069        1 
H       0.53337736      -1.02679934      -2.76137944        1 
H       0.26347368       0.71328132      -2.59094581        1 
H       1.88686010       0.03811823      -2.38090264        1 
H      -2.76763581      -1.41451448      -1.16517964        1 
H      -1.96970544      -0.20898770      -2.18031612        1 
H      -1.35037142      -1.85706180      -2.11321755        1 
H       0.56040821      -3.63933296       0.32058141        1 
H      -0.06280187      -2.97724041      -1.20220496        1 
H      -0.31406272      -1.37097931       2.83362665        1 
