35
Lattice="0.0 0.0 0.0 0.0 0.0 0.0 0.0 0.0 0.0" Properties=species:S:1:pos:R:3:Z:I:1 pbc="F F F"
C       0.38162592       1.10314729       0.15449069        6 
C       0.73682654      -0.31211263       0.87728589        6 
C      -0.96595230       1.01340003      -0.57216031        6 
C      -0.41165972      -1.32173717       0.72672953        6 
O      -1.96618559       1.53923039       0.16662419        8 
O      -1.16693668       0.49380235      -1.64416972        8 
O      -0.29731909      -2.13573371      -0.33189424        8 
O      -1.31867366      -1.41597264       1.52338702        8 
C      -1.38922519      -3.04048132      -0.56820356        6 
C      -3.29337158       1.38092472      -0.36384372        6 
C       1.60004386       1.25898283      -0.84729806        6 
C       1.54356482       0.18629610      -1.91932777        6 
C       1.84243480      -0.97600887      -1.33823420        6 
C       2.08725208      -0.70358952       0.13732850        6 
C       2.75022106       0.69012511       0.01720483        6 
C       0.35580650       2.30462247       1.11840130        6 
C       0.97820439      -0.18657945       2.39212439        6 
H      -1.56134881      -3.67510957       0.30196390        1 
H      -3.53544080       0.32160526      -0.46264489        1 
H       1.81476422      -1.95757526      -1.78599163        1 
H      -1.08891049      -3.63514246      -1.42836833        1 
H      -2.29575550      -2.47787908      -0.79595732        1 
H      -3.95224282       1.85475565       0.36033341        1 
H      -3.37925565       1.86353843      -1.33855180        1 
H       2.63761051      -1.47345690       0.67902471        1 
H       1.70077859       2.28531972      -1.20195647        1 
H       1.78608805       0.50741412       2.61569551        1 
H       0.07745718       0.13797244       2.91048903        1 
H       1.25319700      -1.16458168       2.79556142        1 
H       0.07927272       3.20617191       0.56671084        1 
H      -0.37163806       2.17537247       1.91755899        1 
H       1.33497558       2.47752634       1.56255944        1 
H       3.68995279       0.64786427      -0.53361072        1 
H       2.91375908       1.20417363       0.96515910        1 
H       1.21839609       0.34641155      -2.93618751        1 
