35
Lattice="0.0 0.0 0.0 0.0 0.0 0.0 0.0 0.0 0.0" Properties=species:S:1:pos:R:3:Z:I:1 pbc="F F F"
C      -0.64654467       0.31535482       0.71380354        6 
C       0.87413095       0.73589911       0.34177013        6 
C      -1.18292274      -1.04752914       0.23713609        6 
C       1.80597902      -0.24180085      -0.38042729        6 
O      -2.47717492      -0.92385365      -0.16580404        8 
O      -0.64839367      -2.12265359       0.30534704        8 
O       1.87377654      -1.43481706       0.21623438        8 
O       2.57327677       0.10109993      -1.25369359        8 
C       2.79176871      -2.38785626      -0.34133319        6 
C      -3.14313761      -2.14600880      -0.52178478        6 
C      -1.45373498       1.48615826       0.00261911        6 
C      -1.29596528       1.27484303      -1.49883932        6 
C      -0.03448752       1.58159239      -1.81641587        6 
C       0.66051063       2.01870180      -0.53754052        6 
C      -0.51613142       2.69010513       0.19962346        6 
C      -0.93787343       0.28876476       2.23128353        6 
C       1.71764689       1.10269741       1.59706553        6 
H       2.55719771      -2.57129032      -1.39092619        1 
H      -3.13748858      -2.84695568       0.31466381        1 
H       0.46111319       1.45338297      -2.76833244        1 
H       2.65162875      -3.29484853       0.24233265        1 
H       3.81854236      -2.02622261      -0.26072423        1 
H      -4.16190926      -1.85767721      -0.77344487        1 
H      -2.65511287      -2.61234196      -1.37961272        1 
H       1.57711194       2.59029992      -0.66537617        1 
H      -2.47393086       1.57480210       0.36945103        1 
H       1.28006085       1.92903472       2.15530077        1 
H       1.83040436       0.24930359       2.26602746        1 
H       2.71470662       1.41367256       1.27598705        1 
H      -1.99561900       0.06699830       2.39286586        1 
H      -0.34909034      -0.48080081       2.73321498        1 
H      -0.72507596       1.25006149       2.69684906        1 
H      -0.87537318       3.57938641      -0.32041383        1 
H      -0.31602607       2.94326497       1.24177926        1 
H      -2.05406693       0.84674605      -2.13921175        1 
