35
Lattice="0.0 0.0 0.0 0.0 0.0 0.0 0.0 0.0 0.0" Properties=species:S:1:pos:R:3:Z:I:1 pbc="F F F"
C       0.77873933       0.70528497      -0.42265317        6 
C      -0.79971537       0.52875375      -0.66505241        6 
C       1.41782128      -0.54632881       0.18334110        6 
C      -1.25842129      -0.92159430      -0.51750379        6 
O       2.70197823      -0.70995524      -0.19822529        8 
O       0.87639291      -1.29851669       0.95798557        8 
O      -2.20364327      -1.09198240       0.42209280        8 
O      -0.89648322      -1.80411814      -1.26066957        8 
C      -2.68195755      -2.43914222       0.58690390        6 
C       3.36467878      -1.87554693       0.32561936        6 
C       0.78993859       1.85802167       0.69411596        6 
C       0.21016476       1.29758728       1.98289903        6 
C      -1.09760932       1.11526369       1.78425347        6 
C      -1.41442930       1.55874084       0.36538471        6 
C      -0.40139469       2.71871193       0.22650645        6 
C       1.55458691       1.16792908      -1.66520520        6 
C      -1.26389295       0.89555630      -2.09574983        6 
H      -3.15074230      -2.79350753      -0.33271654        1 
H       2.81976778      -2.77736400       0.04303248        1 
H      -1.79897860       0.62816018       2.44504325        1 
H      -3.40883588      -2.39216679       1.39505534        1 
H      -1.85395713      -3.09873241       0.84855581        1 
H       4.35663340      -1.86877477      -0.12088670        1 
H       3.43104629      -1.82339365       1.41343375        1 
H      -2.46056734       1.77967955       0.15613560        1 
H       1.76576123       2.33808483       0.76459003        1 
H      -1.06668090       1.93795096      -2.34243824        1 
H      -0.78680252       0.25899319      -2.83952556        1 
H      -2.34398286       0.73968208      -2.16838696        1 
H       2.59350719       1.36701843      -1.40439093        1 
H       1.55104050       0.40351520      -2.44456664        1 
H       1.13189097       2.08134235      -2.08324509        1 
H      -0.61313638       3.53643708       0.91634771        1 
H      -0.29977977       3.11848620      -0.78223266        1 
H       0.79146718       0.97884050       2.83711743        1 
