35
Lattice="0.0 0.0 0.0 0.0 0.0 0.0 0.0 0.0 0.0" Properties=species:S:1:pos:R:3:Z:I:1 pbc="F F F"
C       0.82735388       0.58944582      -0.47735344        6 
C      -0.76260469       0.46426380      -0.60950325        6 
C       1.61018205      -0.71849440      -0.40777215        6 
C      -1.39959958      -0.82444676      -0.05556422        6 
O       2.61796523      -0.64425481       0.49467044        8 
O       1.39454004      -1.69503074      -1.07552139        8 
O      -2.75121701      -0.64307867       0.00697599        8 
O      -0.88906696      -1.86585753       0.25394583        8 
C      -3.51338779      -1.76668361       0.47394210        6 
C       3.41784215      -1.83379397       0.62785584        6 
C       1.01374105       1.59930597       0.70776980        6 
C       0.41216149       0.98969273       1.96428203        6 
C      -0.91721155       1.01024513       1.82457572        6 
C      -1.21956416       1.59464548       0.44738746        6 
C      -0.08819323       2.62877911       0.35610432        6 
C       1.47813698       1.20820767      -1.76000234        6 
C      -1.32194669       0.71631228      -2.01701901        6 
H      -3.36314425      -2.63042959      -0.17605759        1 
H       3.92822960      -2.06098093      -0.30973274        1 
H      -1.65432114       0.57413259       2.48585712        1 
H      -4.55246305      -1.44389817       0.44654604        1 
H      -3.22233837      -2.03371664       1.49157240        1 
H       4.13889742      -1.61282392       1.41211283        1 
H       2.78955075      -2.68090700       0.90668895        1 
H      -2.23897619       1.93165846       0.27448897        1 
H       2.03595887       1.96180860       0.79314999        1 
H      -1.03065403       1.69877877      -2.38954480        1 
H      -0.96264331      -0.03806651      -2.72116224        1 
H      -2.41048921       0.67321755      -1.99608736        1 
H       2.55528490       1.30143372      -1.59794804        1 
H       1.32299843       0.56173041      -2.62358217        1 
H       1.09475961       2.19824095      -1.99609348        1 
H      -0.18245581       3.40572955       1.11634152        1 
H       0.01332446       3.09956163      -0.62121782        1 
H       0.98426564       0.53757693       2.76238918        1 
