35
Lattice="0.0 0.0 0.0 0.0 0.0 0.0 0.0 0.0 0.0" Properties=species:S:1:pos:R:3:Z:I:1 pbc="F F F"
C       0.67500215      -0.73308176      -0.57996253        6 
C       0.43044654       0.87077525      -0.50379042        6 
C      -0.35818671      -1.55159516       0.20677728        6 
C      -0.80401008       1.24952437       0.32615122        6 
O      -1.40447128      -1.89258090      -0.59090366        8 
O      -0.34914849      -1.80104346       1.38291236        8 
O      -1.73948480       1.89829068      -0.41161304        8 
O      -0.98016627       0.99607918       1.49111895        8 
C      -2.95214781       2.24065197       0.27966144        6 
C      -2.49327882      -2.57051634       0.05935066        6 
C       2.10752786      -0.85922742       0.10548460        6 
C       2.01199789      -0.48850799       1.57784604        6 
C       1.80252139       0.82800140       1.64569634        6 
C       1.76436459       1.35522953       0.22317642        6 
C       2.79880477       0.41235310      -0.43123457        6 
C       0.74519305      -1.28787481      -2.01776963        6 
C       0.34296232       1.52874368      -1.89468438        6 
H      -3.44904819       1.34041641       0.64590217        1 
H      -2.90920889      -1.94660788       0.85213946        1 
H       1.57330485       1.40843422       2.52707057        1 
H      -3.57216273       2.74708388      -0.45732132        1 
H      -2.74219405       2.89880204       1.12401399        1 
H      -3.23093770      -2.74798968      -0.72074519        1 
H      -2.15602122      -3.51490459       0.48952191        1 
H       1.91663748       2.42828247       0.10117510        1 
H       2.57583190      -1.81760792      -0.12049343        1 
H       1.24189610       1.34849528      -2.48173973        1 
H      -0.51539873       1.17118337      -2.46179784        1 
H       0.23164012       2.60830316      -1.78230610        1 
H       0.89708361      -2.36950738      -1.98039694        1 
H      -0.17194294      -1.10844042      -2.57629146        1 
H       1.57894627      -0.85888846      -2.57170411        1 
H       3.79518388       0.54533770      -0.00946332        1 
H       2.85982183       0.47932579      -1.51775054        1 
H       1.99236897      -1.19631164       2.39178793        1 
