35
Lattice="0.0 0.0 0.0 0.0 0.0 0.0 0.0 0.0 0.0" Properties=species:S:1:pos:R:3:Z:I:1 pbc="F F F"
C      -0.61384510      -0.93509639       0.27324209        6 
C      -0.68753757       0.59697395       0.74323716        6 
C       0.73466743      -1.46905140      -0.20236365        6 
C       0.55122794       1.46381297       0.46714305        6 
O       1.76832574      -0.93722612       0.48427292        8 
O       0.85894773      -2.43824216      -0.91316170        8 
O       1.05398453       1.31248069      -0.77378158        8 
O       0.98889744       2.28049514       1.24346515        8 
C       2.22853079       2.07658317      -1.08037931        6 
C       3.06184265      -1.50760635       0.22515332        6 
C      -1.75640179      -1.04305925      -0.80576300        6 
C      -1.37546763      -0.19941754      -2.00698426        6 
C      -1.47108796       1.08238237      -1.64284852        6 
C      -1.90039989       1.11501733      -0.18395988        6 
C      -2.82222508      -0.12376099      -0.16833146        6 
C      -0.92820360      -1.93537630       1.42741746        6 
C      -1.04944607       0.79953565       2.22158617        6 
H       2.03762556       3.14519827      -0.97247674        1 
H       3.33490239      -1.36651648      -0.82207848        1 
H      -1.18223453       1.94938180      -2.22020357        1 
H       2.47033205       1.83172491      -2.11288438        1 
H       3.04747734       1.79169200      -0.41693554        1 
H       3.74972855      -0.97250584       0.87613604        1 
H       3.06287578      -2.57435536       0.45427313        1 
H      -2.31175888       2.05731685       0.17761706        1 
H      -2.03383911      -2.07488114      -1.01320379        1 
H      -1.99035542       0.31478724       2.47471769        1 
H      -0.27088867       0.41168969       2.88036142        1 
H      -1.14570225       1.86480118       2.42948440        1 
H      -0.89090644      -2.95204607       1.03243594        1 
H      -0.20183868      -1.85563156       2.23735609        1 
H      -1.92132635      -1.77405351       1.84210348        1 
H      -3.69103888       0.00360782      -0.81553460        1 
H      -3.16023690      -0.42773276       0.82245100        1 
H      -0.99189671      -0.59387929      -2.93786566        1 
