35
Lattice="0.0 0.0 0.0 0.0 0.0 0.0 0.0 0.0 0.0" Properties=species:S:1:pos:R:3:Z:I:1 pbc="F F F"
C       0.52517786       1.03663172       0.14410016        6 
C       0.71104302      -0.41025768       0.86938627        6 
C      -0.81547630       1.14545208      -0.59009362        6 
C      -0.55322348      -1.27591146       0.76192988        6 
O      -1.78352476       1.60641924       0.23447034        8 
O      -1.04361897       0.82329687      -1.72987348        8 
O      -0.68834338      -1.90563641      -0.41622893        8 
O      -1.36216530      -1.39473719       1.65392841        8 
C      -1.89440415      -2.66611726      -0.60034905        6 
C      -3.11152673       1.66062532      -0.31348635        6 
C       1.74501388       1.03858722      -0.86762063        6 
C       1.54726799      -0.02043799      -1.93914663        6 
C       1.69732121      -1.21038131      -1.35588591        6 
C       1.99265730      -0.96809817       0.11384968        6 
C       2.82243189       0.33181428      -0.01340396        6 
C       0.65024826       2.23639645       1.10399715        6 
C       1.00338906      -0.30419471       2.37815991        6 
H      -1.96466579      -3.46256369       0.14188188        1 
H      -3.44232826       0.66345249      -0.60870068        1 
H       1.53800601      -2.18184417      -1.79962305        1 
H      -1.82405453      -3.07674044      -1.60515617        1 
H      -2.76819407      -2.01832039      -0.51460509        1 
H      -3.73879889       2.04768316       0.48637596        1 
H      -3.14193759       2.31988566      -1.18231931        1 
H       2.44738010      -1.79942990       0.65396624        1 
H       1.97075572       2.04318957      -1.22634139        1 
H       1.91169069       0.26041699       2.58062518        1 
H       0.17415554       0.15315567       2.91517605        1 
H       1.13666211      -1.30795055       2.78868967        1 
H       0.48891180       3.16293414       0.54643555        1 
H      -0.08676539       2.20325846       1.90439828        1 
H       1.64383011       2.28824900       1.54683545        1 
H       3.74637080       0.17311123      -0.57016165        1 
H       3.05308371       0.82371473       0.93125935        1 
H       1.23971571       0.17880095      -2.95425033        1 
