35
Lattice="0.0 0.0 0.0 0.0 0.0 0.0 0.0 0.0 0.0" Properties=species:S:1:pos:R:3:Z:I:1 pbc="F F F"
C       0.70345639      -0.86330769       0.34141002        6 
C      -0.76721041      -0.33043110       0.73126372        6 
C       1.53537169       0.20783287      -0.38548125        6 
C      -0.95084494       1.15901351       0.45214346        6 
O       2.69547986       0.48068618       0.24289674        8 
O       1.21890873       0.74900784      -1.41783260        8 
O      -2.11786607       1.42738043      -0.16131267        8 
O      -0.17920717       2.01527854       0.81446076        8 
C      -2.38074126       2.81464318      -0.44409789        6 
C       3.48565618       1.53011119      -0.34380056        6 
C       0.32709167      -2.03503991      -0.67766953        6 
C      -0.32086412      -1.44128932      -1.91820948        6 
C      -1.53501707      -1.00798234      -1.57201807        6 
C      -1.71301747      -1.29417528      -0.09219894        6 
C      -0.92725262      -2.61935403       0.01076403        6 
C       1.49430797      -1.44193663       1.52555056        6 
C      -1.09344705      -0.44669329       2.24077430        6 
H      -2.39681984       3.39723701       0.47805189        1 
H       2.90796041       2.45438689      -0.38206179        1 
H      -2.22715971      -0.44017467      -2.17632902        1 
H      -3.35540228       2.83086879      -0.92703617        1 
H      -1.61385387       3.21202041      -1.11025424        1 
H       4.34957071       1.64040773       0.30808292        1 
H       3.79697587       1.25679235      -1.35343308        1 
H      -2.73701565      -1.28927135       0.27914414        1 
H       1.16525466      -2.71113475      -0.84950505        1 
H      -1.05550817      -1.48009568       2.58138974        1 
H      -0.40652047       0.14765455       2.84419198        1 
H      -2.10682759      -0.07564527       2.41643417        1 
H       2.44265435      -1.84888093       1.17120262        1 
H       1.72243963      -0.67770947       2.26752647        1 
H       0.95235320      -2.24836770       2.01825289        1 
H      -1.38531309      -3.41422908      -0.57936122        1 
H      -0.76574257      -2.97783239       1.02782482        1 
H       0.17616060      -1.30240907      -2.86697212        1 
