35
Lattice="0.0 0.0 0.0 0.0 0.0 0.0 0.0 0.0 0.0" Properties=species:S:1:pos:R:3:Z:I:1 pbc="F F F"
C       0.82208754       0.56862613      -0.53295422        6 
C      -0.77270494       0.52821999      -0.56913211        6 
C       1.49243548      -0.79858012      -0.45253339        6 
C      -1.39804502      -0.72629744       0.05384477        6 
O       2.56193982      -0.78780965       0.37215710        8 
O       1.14373495      -1.77048090      -1.07363525        8 
O      -2.73988651      -0.73185661      -0.15872441        8 
O      -0.85115572      -1.57987068       0.70205801        8 
C      -3.46390923      -1.82557019       0.42906428        6 
C       3.24974028      -2.04588127       0.50884013        6 
C       1.13325939       1.60601583       0.60595225        6 
C       0.60332154       1.07028600       1.92536619        6 
C      -0.73014237       1.13991008       1.88238307        6 
C      -1.11205943       1.68337711       0.51044086        6 
C       0.04937013       2.66840983       0.29694181        6 
C       1.44419431       1.09801629      -1.86526236        6 
C      -1.40323141       0.83288840      -1.93342061        6 
H      -3.10856451      -2.77680316       0.02994747        1 
H       3.64499671      -2.37406113      -0.45394099        1 
H      -1.42920227       0.74591357       2.60825389        1 
H      -4.50516646      -1.66154824       0.15866802        1 
H      -3.34461039      -1.82722785       1.51391580        1 
H       4.05814532      -1.86023781       1.21278945        1 
H       2.56735142      -2.80504698       0.89381295        1 
H      -2.12912734       2.05557218       0.39818551        1 
H       2.17197479       1.93083700       0.60479813        1 
H      -1.04726760       1.78293512      -2.33232764        1 
H      -1.16751790       0.04947809      -2.65745299        1 
H      -2.48669601       0.88993687      -1.84203581        1 
H       2.53251466       1.11307271      -1.76327341        1 
H       1.19455721       0.44518407      -2.70187257        1 
H       1.12407108       2.10958450      -2.10671681        1 
H       0.04201163       3.47543720       1.03086971        1 
H       0.09457927       3.09672026      -0.70416415        1 
H       1.21300442       0.61581235       2.69335071        1 
