35
Lattice="0.0 0.0 0.0 0.0 0.0 0.0 0.0 0.0 0.0" Properties=species:S:1:pos:R:3:Z:I:1 pbc="F F F"
C       0.92429362      -0.70020920      -0.43141826        6 
C       0.64521621       0.90608073      -0.50747707        6 
C      -0.25982938      -1.68731711      -0.46761271        6 
C      -0.80507633       1.42856857      -0.60330684        6 
O      -1.26548345      -1.39994893       0.36883185        8 
O      -0.25445701      -2.70186378      -1.12984868        8 
O      -1.57926343       1.16460046       0.45810290        8 
O      -1.18122985       2.16527262      -1.48934657        8 
C      -2.91333678       1.69294443       0.41915550        6 
C      -2.35310829      -2.33881106       0.40211196        6 
C       1.68882945      -0.82282464       0.96856829        6 
C       0.75045417      -0.47491126       2.10933074        6 
C       0.52711705       0.84010468       2.05556680        6 
C       1.30580237       1.38843589       0.87313691        6 
C       2.54116973       0.46309614       0.93829500        6 
C       1.87002007      -1.18657507      -1.55122009        6 
C       1.38738395       1.58521400      -1.67708745        6 
H      -2.89881246       2.78279033       0.36383225        1 
H      -2.00880057      -3.31491397       0.74811888        1 
H      -0.16313792       1.41099682       2.65857179        1 
H      -3.37951340       1.36099388       1.34483698        1 
H      -3.45432913       1.30145771      -0.44423823        1 
H      -3.07342703      -1.91643131       1.09993516        1 
H      -2.79564719      -2.44932339      -0.58901662        1 
H       1.48516573       2.46384164       0.87226383        1 
H       2.21509449      -1.77396809       1.04882149        1 
H       2.45892918       1.40739880      -1.63861734        1 
H       1.01345254       1.24784942      -2.64367356        1 
H       1.22277686       2.66149090      -1.63064595        1 
H       2.07627929      -2.24694241      -1.41380396        1 
H       1.41583209      -1.07524500      -2.53641653        1 
H       2.81718842      -0.65391132      -1.54652528        1 
H       3.10371039       0.59826250       1.86257588        1 
H       3.21965563       0.54662419       0.09142815        1 
H       0.27612914      -1.19400516       2.76218124        1 
