35
Lattice="0.0 0.0 0.0 0.0 0.0 0.0 0.0 0.0 0.0" Properties=species:S:1:pos:R:3:Z:I:1 pbc="F F F"
C       0.66639406      -0.70552366      -0.59840492        6 
C       0.50515650       0.90296950      -0.47215483        6 
C      -0.35872417      -1.56417889       0.15145313        6 
C      -0.72725915       1.36172483       0.31491972        6 
O      -1.61602400      -1.34854964      -0.28655816        8 
O      -0.09440374      -2.40750673       0.97340193        8 
O      -1.82817400       1.41099765      -0.46283268        8 
O      -0.73460901       1.72680709       1.46645300        8 
C      -3.04879957       1.78748235       0.19057408        6 
C      -2.64648037      -2.16250591       0.29946854        6 
C       2.09489311      -0.92945796       0.04719677        6 
C       1.99290455      -0.63312854       1.53781528        6 
C       1.83213439       0.68538118       1.67224027        6 
C       1.83918365       1.29031442       0.27570972        6 
C       2.83971335       0.33700404      -0.41858825        6 
C       0.62926046      -1.22361783      -2.05282957        6 
C       0.45124301       1.62413546      -1.83942844        6 
H      -3.28956268       1.07857921       0.98532917        1 
H      -2.67040458      -2.02978405       1.38202380        1 
H       1.62533593       1.23680735       2.57657297        1 
H      -3.81214747       1.76490039      -0.58458206        1 
H      -2.96618163       2.78737717       0.61944687        1 
H      -3.57537062      -1.81909821      -0.15138759        1 
H      -2.47760169      -3.21649572       0.07197607        1 
H       2.04205721       2.35999139       0.21986541        1 
H       2.51998324      -1.89570197      -0.22169684        1 
H       1.36305602       1.47093125      -2.41526401        1 
H      -0.39686686       1.29935644      -2.43879584        1 
H       0.34587071       2.69973971      -1.67423815        1 
H       0.76302565      -2.30909265      -2.05542740        1 
H      -0.32356951      -0.99908512      -2.53185292        1 
H       1.43148061      -0.79209276      -2.65056128        1 
H       3.83941035       0.40659445       0.01147330        1 
H       2.91094422       0.45325846      -1.50138147        1 
H       1.94213588      -1.38820349       2.30756531        1 
