35
Lattice="0.0 0.0 0.0 0.0 0.0 0.0 0.0 0.0 0.0" Properties=species:S:1:pos:R:3:Z:I:1 pbc="F F F"
C       0.80749382       0.46144039      -0.51060328        6 
C      -0.78835498       0.53362195      -0.52390940        6 
C       1.41423923      -0.92806166      -0.33694432        6 
C      -1.50827923      -0.62453151       0.18497744        6 
O       2.68874600      -0.83814182       0.11824841        8 
O       0.87724105      -1.98021559      -0.56578636        8 
O      -2.78587075      -0.74422952      -0.26112318        8 
O      -1.07494782      -1.31593142       1.06870440        8 
C      -3.57350324      -1.76710727       0.37086591        6 
C       3.37855893      -2.09054002       0.28129672        6 
C       1.22510755       1.57170800       0.52264025        6 
C       0.70821976       1.19314609       1.89770808        6 
C      -0.61905516       1.34167738       1.88294243        6 
C      -1.01266451       1.78769955       0.48074424        6 
C       0.20198536       2.67258753       0.14780395        6 
C       1.42619996       0.83764988      -1.90114171        6 
C      -1.41405335       0.82379481      -1.89412005        6 
H      -3.11124117      -2.74518728       0.22982056        1 
H       3.46245108      -2.60767793      -0.67623173        1 
H      -1.31542058       1.05447196       2.65867424        1 
H      -4.54502123      -1.72730605      -0.11798561        1 
H      -3.67367631      -1.57103739       1.43984519        1 
H       4.36366018      -1.83225408       0.66416206        1 
H       2.84472785      -2.72921416       0.98642109        1 
H      -2.00684987       2.21896657       0.36832363        1 
H       2.28174336       1.82221833       0.45762321        1 
H      -0.98583838       1.71674279      -2.34847643        1 
H      -1.26835763      -0.01328909      -2.58040489        1 
H      -2.48594772       0.98187599      -1.79058654        1 
H       2.51415289       0.80713287      -1.82128604        1 
H       1.12489213       0.12878104      -2.67477776        1 
H       1.14781352       1.83585794      -2.23275574        1 
H       0.26951289       3.53784667       0.80812542        1 
H       0.24306855       3.00899625      -0.88782493        1 
H       1.31163016       0.76648545       2.68697070        1 
