35
Lattice="0.0 0.0 0.0 0.0 0.0 0.0 0.0 0.0 0.0" Properties=species:S:1:pos:R:3:Z:I:1 pbc="F F F"
C       1.06804974       0.52348695      -0.47611128        6 
C      -0.52022646       0.77983337      -0.51157392        6 
C       1.50226675      -0.95131098      -0.36410623        6 
C      -1.37500099      -0.47798583      -0.40801962        6 
O       1.20827655      -1.52166012       0.81844127        8 
O       2.13199694      -1.52628065      -1.21988394        8 
O      -2.61654134      -0.17531884       0.03631678        8 
O      -1.04998553      -1.59853184      -0.71356726        8 
C      -3.54563611      -1.27140048       0.11218702        6 
C       1.45860940      -2.93347142       0.90940889        6 
C       1.46211328       1.37136844       0.81780219        6 
C       0.80727445       0.77199442       2.05681850        6 
C      -0.50358422       1.01738317       1.98322039        6 
C      -0.74575767       1.77911174       0.69126779        6 
C       0.55267770       2.60781582       0.62874550        6 
C       1.81624634       1.07887889      -1.70178422        6 
C      -1.00680319       1.43128295      -1.83509054        6 
H      -3.69205504      -1.71853003      -0.87243607        1 
H       2.51090761      -3.15518290       0.72691152        1 
H      -1.28202571       0.65437032       2.64040333        1 
H      -4.47453073      -0.83920787       0.47807793        1 
H      -3.17904267      -2.03438876       0.80063548        1 
H       1.17642485      -3.21327864       1.92276779        1 
H       0.84204648      -3.46096482       0.18000395        1 
H      -1.69048346       2.31436373       0.61454977        1 
H       2.53702230       1.54138299       0.88080621        1 
H      -0.53367787       2.39763875      -2.00484735        1 
H      -0.79890732       0.79359107      -2.69658914        1 
H      -2.08514464       1.59206821      -1.78079614        1 
H       2.88909285       0.93340875      -1.56620752        1 
H       1.53738463       0.54730335      -2.61065659        1 
H       1.63626356       2.14215676      -1.84705640        1 
H       0.63176509       3.30940338       1.46003685        1 
H       0.70088703       3.14593921      -0.30752264        1 
H       1.32186564       0.17209696       2.79228692        1 
