35
Lattice="0.0 0.0 0.0 0.0 0.0 0.0 0.0 0.0 0.0" Properties=species:S:1:pos:R:3:Z:I:1 pbc="F F F"
C       0.93958867      -0.51973632      -0.49978720        6 
C       0.17249120       0.89372002      -0.50532786        6 
C       0.19071227      -1.73897181       0.03104783        6 
C      -1.13564290       0.91238948       0.30235471        6 
O      -1.13734046      -1.66229154      -0.19001849        8 
O       0.73607686      -2.76854128       0.35266512        8 
O      -2.15805380       1.45703071      -0.39748927        8 
O      -1.27426899       0.53044438       1.43839311        8 
C      -3.42187681       1.51378015       0.28328677        6 
C      -1.90693619      -2.83859424       0.11006713        6 
C       2.27155061      -0.21129716       0.28256566        6 
C       1.92031442       0.09509513       1.72521101        6 
C       1.31128496       1.28379269       1.74375803        6 
C       1.23759152       1.78506516       0.30759347        6 
C       2.56715571       1.21503200      -0.23093254        6 
C       1.29748315      -1.00981391      -1.93632082        6 
C      -0.04252320       1.49233274      -1.90402156        6 
H      -3.75129322       0.51029423       0.55784132        1 
H      -1.85070423      -3.06572776       1.17534351        1 
H       0.83339482       1.75882691       2.58807308        1 
H      -4.11329061       1.96357499      -0.42654112        1 
H      -3.34718398       2.12285515       1.18553556        1 
H      -2.92897724      -2.59592247      -0.17375636        1 
H      -1.53985845      -3.69171968      -0.46266038        1 
H       1.05644671       2.85226947       0.17689350        1 
H       3.02833122      -0.97661925       0.12103949        1 
H       0.89653538       1.56867806      -2.44849974        1 
H      -0.73686924       0.89614649      -2.49731579        1 
H      -0.46379244       2.49394045      -1.81779763        1 
H       1.82580508      -1.96115070      -1.86039668        1 
H       0.40279229      -1.16334914      -2.54217114        1 
H       1.94560356      -0.30740755      -2.45615964        1 
H       3.43324369       1.65753556       0.26248507        1 
H       2.69212479       1.29794361      -1.31087742        1 
H       2.03737890      -0.59790885       2.54687980        1 
