35
Lattice="0.0 0.0 0.0 0.0 0.0 0.0 0.0 0.0 0.0" Properties=species:S:1:pos:R:3:Z:I:1 pbc="F F F"
C       0.74070795      -0.45655174      -0.73522167        6 
C       0.33500189       1.03171778      -0.28326386        6 
C      -0.01137619      -1.68900327      -0.18402224        6 
C      -1.06400900       1.31154213       0.25684613        6 
O      -1.25980404      -1.49377475       0.25647679        8 
O       0.53180366      -2.76955033      -0.11247042        8 
O      -2.02242436       0.82697672      -0.55723876        8 
O      -1.30026269       2.11915829       1.12621992        8 
C      -3.37534603       1.16512353      -0.22269465        6 
C      -1.92539598      -2.64755427       0.80313610        6 
C       2.16951162      -0.58092268      -0.00484512        6 
C       1.85592179      -0.70783158       1.48503367        6 
C       1.41943811       0.48456643       1.90427863        6 
C       1.47233019       1.42943618       0.71490486        6 
C       2.70114147       0.85807265      -0.03271042        6 
C       0.85096047      -0.67106390      -2.25393763        6 
C       0.35922410       2.03363244      -1.48720956        6 
H      -3.63422994       0.77362337       0.76307923        1 
H      -1.39433954      -3.01174360       1.68359578        1 
H       1.01159041       0.74124851       2.87225183        1 
H      -3.98978726       0.69662421      -0.98902699        1 
H      -3.51713224       2.24732264      -0.22417421        1 
H      -2.92229812      -2.30299060       1.07025559        1 
H      -1.97910432      -3.44509145       0.06099504        1 
H       1.46461381       2.49188808       0.94870616        1 
H       2.78280353      -1.36839183      -0.43596532        1 
H       1.33268076       2.07646541      -1.96935482        1 
H      -0.38659928       1.77243735      -2.23657832        1 
H       0.13002111       3.03484785      -1.11458923        1 
H       1.18512026      -1.69127222      -2.45019638        1 
H      -0.11264676      -0.52249625      -2.74722452        1 
H       1.57323659       0.01068477      -2.70340146        1 
H       3.62023612       0.96394852       0.54538824        1 
H       2.86401530       1.26130199      -1.03218796        1 
H       1.87699574      -1.63717870       2.03704640        1 
