35
Lattice="0.0 0.0 0.0 0.0 0.0 0.0 0.0 0.0 0.0" Properties=species:S:1:pos:R:3:Z:I:1 pbc="F F F"
C       0.73166259      -0.49562250      -0.81306293        6 
C       0.55847396       1.00526595      -0.21743534        6 
C      -0.52979140      -1.36091038      -0.68938070        6 
C      -0.77908360       1.22888873       0.49444691        6 
O      -0.90565842      -1.59080564       0.57996577        8 
O      -1.14758336      -1.79746050      -1.63323536        8 
O      -1.75841127       1.48037024      -0.40853570        8 
O      -1.00296009       1.13622456       1.67423458        8 
C      -3.08664054       1.62801503       0.12063940        6 
C      -2.11090075      -2.35332274       0.75836275        6 
C       1.97416430      -1.02259275       0.02824252        6 
C       1.62215487      -1.12754770       1.50224677        6 
C       1.49638980       0.11369419       1.97611762        6 
C       1.75973501       1.06830673       0.82118297        6 
C       2.83723789       0.26037984       0.06592666        6 
C       1.09088160      -0.51321781      -2.31247995        6 
C       0.72136735       2.11964975      -1.27143938        6 
H      -3.38908704       0.72308592       0.64982946        1 
H      -1.99515498      -3.35653574       0.34509547        1 
H       1.15995642       0.41055959       2.95721267        1 
H      -3.72621424       1.79804830      -0.74275265        1 
H      -3.13403278       2.47447043       0.80743357        1 
H      -2.26868091      -2.39313632       1.83373729        1 
H      -2.94981032      -1.86129054       0.26324577        1 
H       2.00377243       2.09436610       1.09688042        1 
H       2.41718606      -1.91003753      -0.42540831        1 
H       1.72145997       2.11790335      -1.70277201        1 
H      -0.00542401       2.03108364      -2.07722528        1 
H       0.56939938       3.09227774      -0.79533816        1 
H       1.23635104      -1.54565692      -2.63528819        1 
H       0.28900487      -0.10081363      -2.92348969        1 
H       2.00764598       0.03425340      -2.52185674        1 
H       3.74217781       0.12667893       0.65920307        1 
H       3.10605835       0.65977094      -0.91131594        1 
H       1.40727626      -2.05162691       2.01952714        1 
