35
Lattice="0.0 0.0 0.0 0.0 0.0 0.0 0.0 0.0 0.0" Properties=species:S:1:pos:R:3:Z:I:1 pbc="F F F"
C       0.79404104       0.65067707      -0.44810378        6 
C      -0.78422438       0.39292040      -0.56638924        6 
C       1.57312854      -0.43556623       0.31803013        6 
C      -1.23572751      -1.03853225      -0.30119369        6 
O       2.74334820      -0.74436225      -0.28980521        8 
O       1.23249783      -0.95816969       1.34823721        8 
O      -2.56027653      -1.06973451      -0.01637551        8 
O      -0.55392529      -2.03018360      -0.34308454        8 
C      -3.12651891      -2.37436419       0.20047360        6 
C       3.50929402      -1.78414159       0.34257202        6 
C       0.78467658       1.94536944       0.51558579        6 
C       0.29130586       1.52454011       1.89376870        6 
C      -1.01324755       1.25827915       1.78964930        6 
C      -1.41585725       1.51098312       0.34965554        6 
C      -0.47054769       2.68847866       0.01458391        6 
C       1.48588754       0.99482720      -1.77413802        6 
C      -1.30931225       0.59801817      -2.02547389        6 
H      -3.02573425      -2.98867004      -0.69619396        1 
H       2.91994491      -2.70017827       0.40307555        1 
H      -1.65569742       0.82104287       2.54167550        1 
H      -4.17633891      -2.20059162       0.42752419        1 
H      -2.62901972      -2.87273924       1.03361543        1 
H       4.38251116      -1.92717960      -0.29082632        1 
H       3.80887219      -1.48473686       1.34837142        1 
H      -2.47905469       1.64696190       0.16122914        1 
H       1.73390984       2.48036401       0.48322306        1 
H      -1.11568590       1.60226784      -2.39600760        1 
H      -0.85228083      -0.11279493      -2.71648261        1 
H      -2.38876155       0.43877629      -2.04063190        1 
H       2.52796015       1.25487593      -1.59143412        1 
H       1.47597858       0.15037041      -2.46489309        1 
H       1.01157292       1.84474519      -2.26359404        1 
H      -0.69158888       3.57291104       0.61350884        1 
H      -0.44004983       2.97185448      -1.03757578        1 
H       0.92517579       1.34753079       2.75044747        1 
