35
Lattice="0.0 0.0 0.0 0.0 0.0 0.0 0.0 0.0 0.0" Properties=species:S:1:pos:R:3:Z:I:1 pbc="F F F"
C       0.98763431       0.66052762      -0.47280644        6 
C      -0.62119527       0.69178230      -0.54025602        6 
C       1.60138324      -0.75076074      -0.40604532        6 
C      -1.29686551      -0.66287482      -0.33687914        6 
O       1.59968790      -1.28625627       0.82833196        8 
O       2.09270258      -1.30956173      -1.35670175        8 
O      -2.58279643      -0.49552913       0.05196982        8 
O      -0.82169258      -1.75156732      -0.54299238        8 
C      -3.36170161      -1.69709840       0.19296219        6 
C       2.00602896      -2.66321677       0.90688744        6 
C       1.24527292       1.54778531       0.81995049        6 
C       0.63950927       0.87834077       2.04755356        6 
C      -0.68904016       0.96771443       1.94479400        6 
C      -0.99067342       1.68649246       0.63901100        6 
C       0.19784115       2.66385454       0.59729312        6 
C       1.66763014       1.32577878      -1.68887341        6 
C      -1.17810531       1.20609298      -1.88899605        6 
H      -3.40950516      -2.23428020      -0.75564877        1 
H       3.03934975      -2.78132002       0.57751655        1 
H      -1.43457775       0.52181209       2.58894503        1 
H      -4.35264028      -1.36572297       0.49599873        1 
H      -2.92520082      -2.34882908       0.95131391        1 
H       1.90238594      -2.93634430       1.95529961        1 
H       1.35132152      -3.27229307       0.28231186        1 
H      -1.99159335       2.10061565       0.53431598        1 
H       2.28940999       1.84752792       0.90865759        1 
H      -0.82919790       2.21585984      -2.10170384        1 
H      -0.88114736       0.55973124      -2.71773416        1 
H      -2.26839298       1.22966674      -1.84646915        1 
H       2.74851938       1.33507941      -1.53268399        1 
H       1.48319996       0.76221700      -2.60177797        1 
H       1.34353608       2.35362481      -1.83701077        1 
H       0.16942834       3.37658409       1.42285748        1 
H       0.30067274       3.21047346      -0.34008233        1 
H       1.20593079       0.35078657       2.79995620        1 
