35
Lattice="0.0 0.0 0.0 0.0 0.0 0.0 0.0 0.0 0.0" Properties=species:S:1:pos:R:3:Z:I:1 pbc="F F F"
C      -0.32395365      -1.06064922       0.28096403        6 
C      -0.77966313       0.38573764       0.80228236        6 
C       1.10546386      -1.18006233      -0.24267392        6 
C       0.03984229       1.61439448       0.37863959        6 
O       2.00350429      -0.95508742       0.74189144        8 
O       1.41541784      -1.57048753      -1.34172928        8 
O       1.12641495       1.35226728      -0.36278672        8 
O      -0.34373331       2.74271041       0.58929791        8 
C       1.77428141       2.47966926      -0.97673722        6 
C       3.38394899      -1.04574121       0.36302345        6 
C      -1.39162355      -1.37141535      -0.83390517        6 
C      -1.26801885      -0.33523264      -1.93889681        6 
C      -1.74736469       0.81980324      -1.46725194        6 
C      -2.15364827       0.57870276      -0.02001753        6 
C      -2.67356310      -0.86309593      -0.13143199        6 
C      -0.40452483      -2.16250016       1.37435169        6 
C      -1.02223940       0.48604491       2.31416337        6 
H       1.07140173       3.01317635      -1.61841731        1 
H       3.61717159      -0.29590792      -0.39544048        1 
H      -1.73713241       1.78734912      -1.95122983        1 
H       2.58541150       2.05856256      -1.56661788        1 
H       2.15874128       3.16181547      -0.21763427        1 
H       3.95066403      -0.85601233       1.27223562        1 
H       3.61141636      -2.03658013      -0.03307294        1 
H      -2.79462700       1.32934772       0.43726040        1 
H      -1.36713844      -2.41142956      -1.15606056        1 
H      -1.79281185      -0.21285304       2.64005805        1 
H      -0.11032688       0.27967636       2.87954814        1 
H      -1.35426308       1.49614805       2.55693985        1 
H      -0.10792391      -3.11926248       0.93514527        1 
H       0.26790112      -1.95272849       2.20392827        1 
H      -1.41259273      -2.28153860       1.76570756        1 
H      -3.55067176      -0.92988740      -0.77687293        1 
H      -2.89698540      -1.33912137       0.82342311        1 
H      -0.78484901      -0.51415355      -2.88857378        1 
