35
Lattice="0.0 0.0 0.0 0.0 0.0 0.0 0.0 0.0 0.0" Properties=species:S:1:pos:R:3:Z:I:1 pbc="F F F"
C      -0.49065107      -0.88655991       0.47234986        6 
C      -0.68918097       0.71664214       0.62106765        6 
C       0.76470685      -1.23816737      -0.33502372        6 
C       0.35584350       1.54029949      -0.13932997        6 
O       1.81455090      -1.53304231       0.46132180        8 
O       0.84144611      -1.27991839      -1.53947536        8 
O       1.57628892       1.42482453       0.43359389        8 
O       0.16519780       2.20987393      -1.12272598        8 
C       2.65049202       2.10609083      -0.23823360        6 
C       3.04884599      -1.82615928      -0.21141123        6 
C      -1.82188049      -1.29358639      -0.28197782        6 
C      -1.85228785      -0.67266745      -1.66835423        6 
C      -2.04350763       0.63972434      -1.51737875        6 
C      -2.12560228       0.91728177      -0.02444451        6 
C      -2.83916703      -0.37223326       0.43300965        6 
C      -0.42734940      -1.62573063       1.82549250        6 
C      -0.67486334       1.21855368       2.07773951        6 
H       2.74753631       1.74119244      -1.26222120        1 
H       3.36661398      -0.97411733      -0.81463523        1 
H      -2.02664873       1.39871704      -2.28404709        1 
H       3.54382121       1.87843513       0.33969377        1 
H       2.47007876       3.18182422      -0.25832846        1 
H       3.76947052      -2.02383055       0.57949446        1 
H       2.93800842      -2.69848524      -0.85740929        1 
H      -2.57185030       1.86974358       0.26092998        1 
H      -2.00014127      -2.36868281      -0.23425031        1 
H      -1.47960557       0.77228610       2.66096912        1 
H       0.27369062       1.00380965       2.56827328        1 
H      -0.82165327       2.30247695       2.08873284        1 
H      -0.29137844      -2.69521419       1.64712196        1 
H       0.40548174      -1.28908708       2.43958802        1 
H      -1.34735794      -1.50382321       2.39558237        1 
H      -3.83821493      -0.46080946       0.00509789        1 
H      -2.90222984      -0.50472344       1.51399388        1 
H      -1.65154323      -1.20598184      -2.58527796        1 
