35
Lattice="0.0 0.0 0.0 0.0 0.0 0.0 0.0 0.0 0.0" Properties=species:S:1:pos:R:3:Z:I:1 pbc="F F F"
C       0.77493605       0.62047420      -0.50962403        6 
C      -0.82448576       0.60858305      -0.60942191        6 
C       1.35445214      -0.68231760       0.04355430        6 
C      -1.41949943      -0.79724798      -0.52724004        6 
O       2.68790771      -0.76111229      -0.16596972        8 
O       0.75256291      -1.52135690       0.66773618        8 
O      -2.28125425      -0.95184944       0.49398005        8 
O      -1.22168496      -1.64603034      -1.36418570        8 
C      -2.85813014      -2.26415926       0.62314844        6 
C       3.33886985      -1.92097385       0.38395050        6 
C       1.00899114       1.72772812       0.62792771        6 
C       0.53160798       1.14333939       1.94869335        6 
C      -0.79947168       1.05710086       1.88444288        6 
C      -1.23532375       1.61335662       0.53773948        6 
C      -0.15194045       2.70009225       0.34177726        6 
C       1.48399694       1.01492201      -1.81289767        6 
C      -1.37276319       1.13032658      -1.96424877        6 
H      -3.42538691      -2.52436537      -0.27206040        1 
H       2.92933024      -2.83073443      -0.05755163        1 
H      -1.46139260       0.57763470       2.59019359        1 
H      -3.51261123      -2.20995696       1.49055054        1 
H      -2.06867295      -3.00055983       0.77840768        1 
H       4.39071964      -1.81005106       0.12981734        1 
H       3.20498424      -1.95790635       1.46628212        1 
H      -2.27681642       1.92409625       0.46671195        1 
H       2.02353024       2.12384631       0.60627440        1 
H      -1.08572452       2.16196664      -2.15920684        1 
H      -1.03655244       0.50650841      -2.79153469        1 
H      -2.46547487       1.09081302      -1.94316941        1 
H       2.55825198       1.08766661      -1.64835567        1 
H       1.31211308       0.27093019      -2.59360679        1 
H       1.13251310       1.97921076      -2.18018834        1 
H      -0.21618999       3.49047630       1.09070768        1 
H      -0.12679562       3.14933680      -0.65136388        1 
H       1.17636578       0.74020571       2.71820148        1 
