35
Lattice="0.0 0.0 0.0 0.0 0.0 0.0 0.0 0.0 0.0" Properties=species:S:1:pos:R:3:Z:I:1 pbc="F F F"
C       0.96709425      -0.49118051      -0.50891969        6 
C       0.12489913       0.88827766      -0.51081186        6 
C       0.28983065      -1.80241988      -0.08197973        6 
C      -1.20102779       0.89526964       0.27590088        6 
O      -1.04097543      -1.71764909       0.06338104        8 
O       0.86118682      -2.86923690      -0.12205961        8 
O      -2.22152214       1.39023895      -0.46847356        8 
O      -1.36730138       0.53111095       1.41222696        8 
C      -3.50404931       1.42855559       0.17692669        6 
C      -1.74134023      -2.95324710       0.28939896        6 
C       2.24980236      -0.13778920       0.33799551        6 
C       1.83414456       0.13349491       1.77053251        6 
C       1.17635847       1.29579108       1.78155844        6 
C       1.13350502       1.81265268       0.34909505        6 
C       2.50463723       1.30769091      -0.14344333        6 
C       1.42663210      -0.87585397      -1.95337389        6 
C      -0.07257592       1.50876807      -1.90360106        6 
H      -3.81346888       0.42330302       0.46850790        1 
H      -1.35282497      -3.45512695       1.17585786        1 
H       0.65531553       1.74308181       2.61495701        1 
H      -4.18840101       1.84132694      -0.56163961        1 
H      -3.47057909       2.06076602       1.06574899        1 
H      -2.78184575      -2.67115542       0.43473073        1 
H      -1.63478210      -3.61348776      -0.57324413        1 
H       0.91324102       2.87315731       0.22394084        1 
H       3.04351552      -0.86858178       0.19258513        1 
H       0.87930986       1.66695704      -2.40566566        1 
H      -0.70015440       0.88622733      -2.54267718        1 
H      -0.56301790       2.47717967      -1.80909962        1 
H       2.03340941      -1.77808349      -1.89624009        1 
H       0.57282135      -1.08647761      -2.60138402        1 
H       2.02029101      -0.09418487      -2.42103353        1 
H       3.33098775       1.77716013       0.39156311        1 
H       2.66764173       1.41265143      -1.21534596        1 
H       1.95540117      -0.56170815       2.59041296        1 
