35
Lattice="0.0 0.0 0.0 0.0 0.0 0.0 0.0 0.0 0.0" Properties=species:S:1:pos:R:3:Z:I:1 pbc="F F F"
C      -0.58196791      -0.99006684       0.21687949        6 
C      -0.70512836       0.50964395       0.83274867        6 
C       0.74458735      -1.24609006      -0.50598077        6 
C       0.60209206       1.30581030       0.69614605        6 
O       1.74637797      -1.42731182       0.38325043        8 
O       0.92301910      -1.27671034      -1.69805431        8 
O       0.85367382       1.70727827      -0.56318275        8 
O       1.36088905       1.52844448       1.60971125        8 
C       2.09670344       2.39444176      -0.78180093        6 
C       3.05330902      -1.65047807      -0.17216679        6 
C      -1.79612588      -1.01261484      -0.80224162        6 
C      -1.52738259      -0.05078510      -1.94872739        6 
C      -1.61761041       1.18788419      -1.46093683        6 
C      -1.94653048       1.07413903       0.01817668        6 
C      -2.84257390      -0.18756903      -0.02228620        6 
C      -0.75587846      -2.11476483       1.25907115        6 
C      -1.03497714       0.52265826       2.33837182        6 
H       2.11413475       3.33898953      -0.23564855        1 
H       3.34923724      -0.81046281      -0.80238974        1 
H      -1.39549972       2.11263408      -1.97302746        1 
H       2.14336001       2.56800116      -1.85466517        1 
H       2.93630590       1.77971560      -0.45455383        1 
H       3.71965138      -1.74250412       0.68232402        1 
H       3.06230941      -2.56349436      -0.76981151        1 
H      -2.36552632       1.96627255       0.48513710        1 
H      -2.07058461      -2.02853773      -1.08706738        1 
H      -1.97451587       0.01825226       2.55594603        1 
H      -0.24298541       0.06311936       2.92711795        1 
H      -1.12615454       1.55706359       2.67719508        1 
H      -0.65222785      -3.08411784       0.76294052        1 
H      -0.00560770      -2.06393984       2.04673705        1 
H      -1.74411947      -2.08544769       1.71665566        1 
H      -3.75153112      -0.02508298      -0.60254596        1 
H      -3.10904407      -0.59253815       0.95348456        1 
H      -1.21470024      -0.34726899      -2.93806078        1 
