35
Lattice="0.0 0.0 0.0 0.0 0.0 0.0 0.0 0.0 0.0" Properties=species:S:1:pos:R:3:Z:I:1 pbc="F F F"
C       0.91546033       0.52904156      -0.62117581        6 
C      -0.68075834       0.66782293      -0.34690770        6 
C       1.71611496      -0.78517571      -0.45193218        6 
C      -1.57987985      -0.58165085      -0.23347565        6 
O       1.18380481      -1.69219535       0.36000340        8 
O       2.84168283      -0.89862333      -0.89416729        8 
O      -2.88660343      -0.17758342      -0.21268230        8 
O      -1.29827600      -1.73783412      -0.07461082        8 
C      -3.85946490      -1.21611328      -0.02486728        6 
C       1.96310613      -2.86920048       0.61821531        6 
C       1.48142118       1.42458898       0.60015135        6 
C       1.21726912       0.65925757       1.88900726        6 
C      -0.09915250       0.69425505       2.11324380        6 
C      -0.72896009       1.50869809       0.99842689        6 
C       0.40805316       2.51931682       0.73046088        6 
C       1.37086199       1.13154972      -1.96420445        6 
C      -1.35195171       1.51530668      -1.47537330        6 
H      -3.81283254      -1.94135135      -0.83941559        1 
H       2.88195912      -2.61549748       1.15105933        1 
H      -0.64922534       0.15724867       2.87459598        1 
H      -4.82378356      -0.71153164      -0.02069396        1 
H      -3.69445982      -1.73560252       0.92085048        1 
H       1.32370551      -3.50249154       1.22933961        1 
H       2.22071892      -3.37095454      -0.31552761        1 
H      -1.72404973       1.90570358       1.19067920        1 
H       2.51017180       1.73194882       0.42048362        1 
H      -0.79953454       2.42114246      -1.70105242        1 
H      -1.43711918       0.94064881      -2.40079401        1 
H      -2.35637307       1.79973968      -1.17103580        1 
H       2.44247866       0.98048745      -2.07246396        1 
H       0.88016171       0.64223486      -2.80867363        1 
H       1.17318451       2.19942565      -2.02509492        1 
H       0.58967996       3.16651264       1.58963284        1 
H       0.27245398       3.13651795      -0.15680900        1 
H       1.95702473       0.08485560       2.42973951        1 
