35
Lattice="0.0 0.0 0.0 0.0 0.0 0.0 0.0 0.0 0.0" Properties=species:S:1:pos:R:3:Z:I:1 pbc="F F F"
C       1.00526663       0.39969424      -0.60686716        6 
C      -0.52312996       0.78683038      -0.34693782        6 
C       1.51670221      -1.02618834      -0.31695733        6 
C      -1.57104656      -0.32051671      -0.44658587        6 
O       0.69782748      -1.80768293       0.39031619        8 
O       2.65929055      -1.34699120      -0.56848971        8 
O      -2.73640132       0.10007706       0.11532396        8 
O      -1.44895628      -1.41470155      -0.93089373        8 
C      -3.84266417      -0.81310820       0.02556054        6 
C       1.19574846      -3.10626944       0.74544082        6 
C       1.70604500       1.24456793       0.58812715        6 
C       1.35197784       0.54497918       1.89366250        6 
C       0.04963169       0.74806680       2.11418004        6 
C      -0.47521690       1.62119351       0.98767374        6 
C       0.78963122       2.47437037       0.70930994        6 
C       1.56574929       0.81446075      -1.97283962        6 
C      -1.06976056       1.73031392      -1.48121297        6 
H      -4.09791689      -1.00343471      -1.01871360        1 
H       2.05981031      -3.02138197       1.40725868        1 
H      -0.56482601       0.30286815       2.88531744        1 
H      -4.66856001      -0.32090735       0.53522917        1 
H      -3.60076976      -1.75981882       0.51108369        1 
H       0.36916478      -3.60087611       1.25111083        1 
H       1.48316998      -3.66152670      -0.14834101        1 
H      -1.40828320       2.14598012       1.18166033        1 
H       2.76510697       1.40263268       0.39284794        1 
H      -0.44454092       2.60231467      -1.64982455        1 
H      -1.15475837       1.19429721      -2.42874736        1 
H      -2.06365073       2.07949522      -1.19985950        1 
H       2.61184357       0.51814093      -2.03340617        1 
H       1.02977194       0.32065079      -2.78702728        1 
H       1.50475128       1.89144796      -2.12474580        1 
H       1.05606186       3.09860328       1.56335403        1 
H       0.74297850       3.09555051      -0.18327604        1 
H       2.01777895      -0.10698531       2.44363134        1 
