35
Lattice="0.0 0.0 0.0 0.0 0.0 0.0 0.0 0.0 0.0" Properties=species:S:1:pos:R:3:Z:I:1 pbc="F F F"
C      -0.43984216      -1.01940647       0.18756976        6 
C      -0.70656356       0.43368391       0.78581275        6 
C       0.98700063      -1.38498025      -0.21361902        6 
C       0.28246124       1.55943880       0.43553765        6 
O       1.90070075      -0.79743569       0.58973948        8 
O       1.26598504      -2.31896914      -0.92889780        8 
O       1.04085901       1.32133466      -0.64725200        8 
O       0.26263920       2.63875328       0.98346567        8 
C       1.84469211       2.41015043      -1.12371197        6 
C       3.25749680      -1.23913701       0.42958753        6 
C      -1.53416381      -1.17190970      -0.93073916        6 
C      -1.31016789      -0.12884271      -2.00898749        6 
C      -1.63184654       1.06187068      -1.49517459        6 
C      -2.03881672       0.83651035      -0.04542741        6 
C      -2.74086578      -0.52811364      -0.19735943        6 
C      -0.68559191      -2.14494863       1.25142128        6 
C      -0.97430253       0.49375110       2.29276702        6 
H       1.21759428       3.26353156      -1.38798827        1 
H       3.60992481      -1.02229151      -0.58035926        1 
H      -1.50571373       2.03156509      -1.95861272        1 
H       2.35679573       2.02555574      -2.00343463        1 
H       2.56397488       2.71757611      -0.36303465        1 
H       3.83360304      -0.67880084       1.16291112        1 
H       3.33669140      -2.31194554       0.61278593        1 
H      -2.58357050       1.64696804       0.43632104        1 
H      -1.63644253      -2.19966986      -1.27381873        1 
H      -1.85020060      -0.09219143       2.57020705        1 
H      -0.11849588       0.12486987       2.86222952        1 
H      -1.14815895       1.52861207       2.58504041        1 
H      -0.58219155      -3.11550599       0.76404135        1 
H       0.04144419      -2.09182188       2.06298026        1 
H      -1.67951368      -2.09022000       1.68782624        1 
H      -3.62094023      -0.46318643      -0.83845503        1 
H      -3.01890525      -1.00505034       0.74126081        1 
H      -0.87471515      -0.33351573      -2.97774518        1 
