35
Lattice="0.0 0.0 0.0 0.0 0.0 0.0 0.0 0.0 0.0" Properties=species:S:1:pos:R:3:Z:I:1 pbc="F F F"
C       0.66021921      -0.60647288      -0.73138782        6 
C       0.64614595       0.93219840      -0.26745413        6 
C      -0.60364439      -1.44435739      -0.47267889        6 
C      -0.67396952       1.55737346       0.17846877        6 
O      -1.08000902      -1.36701381       0.78439884        8 
O      -1.07477676      -2.20500994      -1.28679437        8 
O      -1.75195293       0.93753151      -0.34398449        8 
O      -0.74976937       2.64488686       0.70171882        8 
C      -3.02084629       1.58729999      -0.15728507        6 
C      -2.27251834      -2.12039662       1.04769692        6 
C       1.84335070      -1.16316601       0.21138832        6 
C       1.40655996      -1.09774679       1.66883139        6 
C       1.36357503       0.18934613       2.02324905        6 
C       1.78631621       1.00355567       0.81587793        6 
C       2.81627295       0.03519379       0.19077765        6 
C       1.03118580      -0.82988805      -2.20628782        6 
C       1.01935094       1.89872939      -1.43817129        6 
H      -3.27132526       1.63626310       0.90369380        1 
H      -2.11132781      -3.18356764       0.86336903        1 
H       0.99038634       0.60568020       2.94902121        1 
H      -3.74099197       0.97145604      -0.69198027        1 
H      -2.99736955       2.59821818      -0.56680039        1 
H      -2.50224171      -1.94219557       2.09632725        1 
H      -3.08823313      -1.76986419       0.41211065        1 
H       2.10335094       2.02611888       1.01083184        1 
H       2.21782204      -2.12581342      -0.13722814        1 
H       1.98756450       1.65663317      -1.86931292        1 
H       0.27466987       1.86876183      -2.23629962        1 
H       1.06242216       2.91670521      -1.05051449        1 
H       1.09121959      -1.89901411      -2.40697836        1 
H       0.27346495      -0.42044188      -2.87617918        1 
H       1.99126521      -0.38182355      -2.45279864        1 
H       3.67624215      -0.12489549       0.84217065        1 
H       3.17014550       0.31814588      -0.80042074        1 
H       1.07953481      -1.94772752       2.25040912        1 
