35
Lattice="0.0 0.0 0.0 0.0 0.0 0.0 0.0 0.0 0.0" Properties=species:S:1:pos:R:3:Z:I:1 pbc="F F F"
C      -1.02297093      -0.49234719      -0.33411319        6 
C       0.53216500      -0.47171610      -0.67734456        6 
C      -1.65242213       0.78851413       0.21311536        6 
C       1.34125115       0.56420038       0.11984899        6 
O      -1.16092358       1.88428954      -0.40103872        8 
O      -2.68103894       0.80793096       0.84834494        8 
O       2.64165369       0.53963763      -0.26795064        8 
O       0.95516396       1.27748434       1.00988302        8 
C       3.52792784       1.40302208       0.46361942        6 
C      -1.79432659       3.12985966      -0.07371068        6 
C      -1.18178673      -1.76424194       0.57517790        6 
C      -0.35777236      -1.58099687       1.83799724        6 
C       0.93099393      -1.68285814       1.49958416        6 
C       0.98736234      -1.87828122      -0.01184322        6 
C      -0.26760045      -2.74952053      -0.19763605        6 
C      -1.91142564      -0.68961543      -1.60800969        6 
C       0.88335155      -0.41031601      -2.16804865        6 
H       3.19665300       2.44006448       0.39421040        1 
H      -1.67941691       3.34188262       0.99037395        1 
H       1.79008964      -1.51197383       2.13472204        1 
H       4.50346130       1.27916140      -0.00193152        1 
H       3.56430827       1.11103061       1.51474342        1 
H      -1.27872510       3.88234976      -0.66683386        1 
H      -2.85616320       3.10052845      -0.32482922        1 
H       1.92945533      -2.23872019      -0.42163141        1 
H      -2.22355258      -2.04298965       0.72085566        1 
H       0.43428078      -1.23928791      -2.71525591        1 
H       0.53462244       0.52255547      -2.61746645        1 
H       1.96278374      -0.46515515      -2.29971921        1 
H      -2.95359071      -0.77532915      -1.29598322        1 
H      -1.82567502       0.16211308      -2.28281547        1 
H      -1.65262007      -1.58877830      -2.16164375        1 
H      -0.17495779      -3.71009529       0.31078050        1 
H      -0.54619381      -2.92318290      -1.23677986        1 
H      -0.76744299      -1.31783136       2.80331112        1 
