35
Lattice="0.0 0.0 0.0 0.0 0.0 0.0 0.0 0.0 0.0" Properties=species:S:1:pos:R:3:Z:I:1 pbc="F F F"
C       0.77168654      -0.81163146      -0.49496973        6 
C       0.84137622       0.81463979      -0.44293206        6 
C      -0.65136749      -1.38982289      -0.58931878        6 
C      -0.53228302       1.50547346      -0.50112322        6 
O      -1.33676285      -1.38889007       0.56624167        8 
O      -1.10580003      -1.87829573      -1.59914897        8 
O      -1.26323648       1.38292524       0.61947301        8 
O      -0.92366969       2.13867410      -1.45485342        8 
C      -2.57718094       1.96428094       0.58579408        6 
C      -2.67084909      -1.91980632       0.50709516        6 
C       1.53639063      -1.19660737       0.84826781        6 
C       0.76275662      -0.74149578       2.07419167        6 
C       0.82030881       0.59112557       2.11473371        6 
C       1.63614156       1.04822901       0.91866191        6 
C       2.64945424      -0.12010872       0.85138161        6 
C       1.52643402      -1.41580862      -1.69689895        6 
C       1.64662256       1.42174970      -1.60857113        6 
H      -2.51987814       3.04314295       0.43331936        1 
H      -2.65631985      -2.96699460       0.20058826        1 
H       0.30109350       1.24876626       2.79615654        1 
H      -3.01737654       1.73517187       1.55409238        1 
H      -3.16769693       1.52316156      -0.21922584        1 
H      -3.06588687      -1.81962415       1.51593247        1 
H      -3.27645010      -1.35207751      -0.20158004        1 
H       2.04243742       2.05846816       0.97429493        1 
H       1.85181052      -2.24053007       0.84210426        1 
H       2.66679272       1.04587280      -1.63603328        1 
H       1.17269465       1.22467106      -2.56865426        1 
H       1.68910464       2.50610637      -1.48950044        1 
H       1.45738035      -2.50454420      -1.65119305        1 
H       1.08987852      -1.10729084      -2.64529571        1 
H       2.58015667      -1.14728429      -1.69089318        1 
H       3.26564026      -0.17741086       1.74867890        1 
H       3.29197903      -0.12167304      -0.02696920        1 
H       0.18932787      -1.39268888       2.71697162        1 
