35
Lattice="0.0 0.0 0.0 0.0 0.0 0.0 0.0 0.0 0.0" Properties=species:S:1:pos:R:3:Z:I:1 pbc="F F F"
C       1.19189658       0.08688132      -0.48168690        6 
C      -0.15448239       0.95561638      -0.49090519        6 
C       1.03490033      -1.42524850      -0.26875774        6 
C      -1.42936220       0.12747430      -0.56011764        6 
O       0.08412655      -1.75707252       0.62339826        8 
O       1.75770534      -2.24981095      -0.77814148        8 
O      -2.39889919       0.61851687       0.23970358        8 
O      -1.59824216      -0.81151949      -1.30052474        8 
C      -3.67014490      -0.05311519       0.16948050        6 
C      -0.16278625      -3.16268150       0.79130761        6 
C       1.92499296       0.70264450       0.80840039        6 
C       1.13338046       0.33792675       2.05544730        6 
C      -0.00540440       1.03515846       2.02854335        6 
C       0.01146622       1.88581820       0.77158717        6 
C       1.52577567       2.18860851       0.68183610        6 
C       2.07048290       0.27003595      -1.72696800        6 
C      -0.30830761       1.85194882      -1.75465958        6 
H      -4.06826049      -0.01406170      -0.84565184        1 
H       0.74328731      -3.68008751       1.10883276        1 
H      -0.85112365       0.94138341       2.69498503        1 
H      -4.32010752       0.48243144       0.85817782        1 
H      -3.56459849      -1.09587929       0.47229695        1 
H      -0.93380913      -3.23132647       1.55618546        1 
H      -0.51663074      -3.59157384      -0.14755244        1 
H      -0.67150339       2.73353200       0.75657938        1 
H       2.98668434       0.45818946       0.82115025        1 
H       0.49520477       2.58218719      -1.84131218        1 
H      -0.33571186       1.25316104      -2.66506299        1 
H      -1.24923951       2.40478669      -1.68458039        1 
H       2.98530047      -0.31140770      -1.61984334        1 
H       1.56032727      -0.09069389      -2.62184015        1 
H       2.34096759       1.31358792      -1.88018531        1 
H       1.87812684       2.78231845       1.52589043        1 
H       1.84255044       2.66106993      -0.24769432        1 
H       1.40570329      -0.44217223       2.75308752        1 
