35
Lattice="0.0 0.0 0.0 0.0 0.0 0.0 0.0 0.0 0.0" Properties=species:S:1:pos:R:3:Z:I:1 pbc="F F F"
C       0.95054400       0.47040529      -0.62001395        6 
C      -0.61074104       0.72558292      -0.33190455        6 
C       1.61703763      -0.90172685      -0.37310020        6 
C      -1.57804670      -0.46517287      -0.37828833        6 
O       0.95456526      -1.73818976       0.42441957        8 
O       2.75460713      -1.12193132      -0.73550399        8 
O      -2.82695479      -0.03525205      -0.03645338        8 
O      -1.35418493      -1.62404222      -0.60310257        8 
C      -3.85526180      -1.03851509      -0.02708508        6 
C       1.60279733      -2.98006350       0.73653921        6 
C       1.59095933       1.35988229       0.57542397        6 
C       1.31400783       0.62603983       1.88109014        6 
C       0.00293293       0.72082909       2.12258457        6 
C      -0.60736796       1.55374919       1.01002669        6 
C       0.57759693       2.50904141       0.71938765        6 
C       1.44644051       0.96477371      -1.98703826        6 
C      -1.23410388       1.63458839      -1.45249649        6 
H      -3.96013774      -1.49206518      -1.01441416        1 
H       2.52565052      -2.80666718       1.29390893        1 
H      -0.56078403       0.21881311       2.89766950        1 
H      -4.76827578      -0.51520780       0.25009631        1 
H      -3.62541512      -1.81930072       0.70002992        1 
H       0.88522868      -3.53216972       1.33955616        1 
H       1.83546498      -3.52877967      -0.17718029        1 
H      -1.57734804       2.00036472       1.21970808        1 
H       2.63014782       1.60962854       0.36885878        1 
H      -0.64378601       2.52178189      -1.65806916        1 
H      -1.33662097       1.08351021      -2.39042132        1 
H      -2.22765986       1.95253774      -1.14101589        1 
H       2.50863838       0.74641421      -2.07896576        1 
H       0.93032963       0.45581936      -2.80493793        1 
H       1.30716043       2.03777985      -2.10894188        1 
H       0.80403732       3.14642576       1.57496556        1 
H       0.46220833       3.13128583      -0.16668274        1 
H       2.03674472       0.02479920       2.41636775        1 
