35
Lattice="0.0 0.0 0.0 0.0 0.0 0.0 0.0 0.0 0.0" Properties=species:S:1:pos:R:3:Z:I:1 pbc="F F F"
C       0.82495123       0.46383094      -0.50286051        6 
C      -0.77735296       0.42797827      -0.55351317        6 
C       1.58595268      -0.85992725      -0.41030964        6 
C      -1.50506102      -0.74775809       0.13658156        6 
O       2.86230082      -0.62378282       0.00718507        8 
O       1.17941929      -1.96571816      -0.63677715        8 
O      -2.84476721      -0.46034737       0.15179048        8 
O      -1.08229460      -1.76759854       0.60225388        8 
C      -3.68741715      -1.45054201       0.75856021        6 
C       3.70061618      -1.78640571       0.11766018        6 
C       1.13255957       1.52574214       0.61490511        6 
C       0.55143762       1.02903077       1.92890625        6 
C      -0.77832358       1.13518510       1.84551779        6 
C      -1.10480607       1.65651542       0.44753675        6 
C       0.08570984       2.60628262       0.25068985        6 
C       1.41927680       0.99869400      -1.85621002        6 
C      -1.38959193       0.63207149      -1.94863360        6 
H      -3.60114426      -2.40445296       0.23495069        1 
H       3.81809849      -2.27045846      -0.85390216        1 
H      -1.51042027       0.78803500       2.56275053        1 
H      -4.70022272      -1.06037602       0.67596839        1 
H      -3.41922568      -1.59814223       1.80659057        1 
H       4.65941790      -1.42096115       0.47975326        1 
H       3.27094005      -2.50265223       0.82003366        1 
H      -2.10767338       2.04963530       0.29872714        1 
H       2.17987966       1.81714874       0.63242953        1 
H      -1.07061844       1.57536415      -2.39042516        1 
H      -1.10445236      -0.17797547      -2.62474922        1 
H      -2.47570171       0.64561619      -1.87719460        1 
H       2.49806170       1.11352846      -1.74461674        1 
H       1.23481793       0.29479454      -2.66985932        1 
H       1.01024487       1.96180185      -2.14723572        1 
H       0.07464259       3.42493229       0.97186176        1 
H       0.17494150       3.02013554      -0.75287590        1 
H       1.12674942       0.58396410       2.72960898        1 
