35
Lattice="0.0 0.0 0.0 0.0 0.0 0.0 0.0 0.0 0.0" Properties=species:S:1:pos:R:3:Z:I:1 pbc="F F F"
C       0.90006379       0.73592654      -0.49895361        6 
C      -0.70263981       0.60912408      -0.55912742        6 
C       1.63147614      -0.61502204      -0.47093608        6 
C      -1.24335998      -0.78125247      -0.22019919        6 
O       1.96678961      -1.02110130       0.76758889        8 
O       1.93235582      -1.22784588      -1.46640347        8 
O      -2.56865765      -0.70767265       0.05523149        8 
O      -0.64988895      -1.82969799      -0.23986821        8 
C      -3.23027195      -1.95878162       0.31166498        6 
C       2.51656785      -2.34775708       0.85382262        6 
C       1.08986764       1.64523135       0.77956095        6 
C       0.53871704       0.93783032       2.01098071        6 
C      -0.79340410       0.93086988       1.91372673        6 
C      -1.15071159       1.60850599       0.59826796        6 
C      -0.04318910       2.67561153       0.54683737        6 
C       1.50182365       1.45620032      -1.73018431        6 
C      -1.31640990       0.99381835      -1.91921680        6 
H      -3.13459446      -2.62394573      -0.54798590        1 
H       3.44872507      -2.41662277       0.29109874        1 
H      -1.50123610       0.43606543       2.56505201        1 
H      -4.27367762      -1.70413571       0.48527531        1 
H      -2.80230286      -2.44547891       1.18953465        1 
H       2.69361148      -2.52088545       1.91358518        1 
H       1.79759224      -3.06638151       0.45830981        1 
H      -2.18162861       1.93810155       0.48603049        1 
H       2.10657068       2.02706659       0.86779391        1 
H      -1.06674009       2.01958246      -2.19155896        1 
H      -0.96132006       0.33414599      -2.71435749        1 
H      -2.40317273       0.91427741      -1.86765687        1 
H       2.58143972       1.55544807      -1.59107559        1 
H       1.34551582       0.87595556      -2.63754237        1 
H       1.09297733       2.45353641      -1.87425922        1 
H      -0.12896467       3.39011701       1.36682352        1 
H       0.01502617       3.22043331      -0.39524360        1 
H       1.14487429       0.45555331       2.76268008        1 
