35
Lattice="0.0 0.0 0.0 0.0 0.0 0.0 0.0 0.0 0.0" Properties=species:S:1:pos:R:3:Z:I:1 pbc="F F F"
C       0.73211191      -0.58634145       0.58323048        6 
C      -0.86720692      -0.71704236       0.51664976        6 
C       1.26898722       0.79673528       0.19689151        6 
C      -1.60714133       0.62891050       0.49743546        6 
O       2.60359194       0.72665208      -0.02895846        8 
O       0.65956770       1.83304504       0.12408313        8 
O      -2.08474770       0.95059239      -0.71983213        8 
O      -1.81326742       1.29178059       1.48416365        8 
C      -2.72502555       2.23421460      -0.81840323        6 
C       3.24451082       1.96159337      -0.39100640        6 
C       1.18214212      -1.60157865      -0.56670616        6 
C       0.83477457      -0.92539213      -1.88495764        6 
C      -0.49733995      -0.92359505      -1.98617780        6 
C      -1.05793817      -1.62863441      -0.75894422        6 
C       0.06900463      -2.66362741      -0.52067899        6 
C       1.34350635      -0.95432981       1.94562156        6 
C      -1.47599439      -1.43875766       1.74635084        6 
H      -3.60587824       2.27396365      -0.17571420        1 
H       3.12276787       2.70276795       0.40022812        1 
H      -1.09847692      -0.43902794      -2.74082807        1 
H      -3.00895528       2.33719800      -1.86403938        1 
H      -2.02606896       3.01892012      -0.52706418        1 
H       4.29502773       1.71389327      -0.52729661        1 
H       2.81964267       2.35479092      -1.31640972        1 
H      -2.07531503      -2.00674342      -0.85446934        1 
H       2.21011748      -1.93713792      -0.44752492        1 
H      -1.07518021      -2.43994818       1.88719749        1 
H      -1.31578608      -0.86324221       2.65617180        1 
H      -2.55619987      -1.53052365       1.60438958        1 
H       2.43032118      -0.87866706       1.89437919        1 
H       0.98899777      -0.28351692       2.73165147        1 
H       1.08921171      -1.97581790       2.23013806        1 
H       0.15481477      -3.37753027      -1.34167972        1 
H       0.00450886      -3.21160902       0.41914965        1 
H       1.54589369      -0.43681649      -2.53748047        1 
