35
Lattice="0.0 0.0 0.0 0.0 0.0 0.0 0.0 0.0 0.0" Properties=species:S:1:pos:R:3:Z:I:1 pbc="F F F"
C      -0.75723166      -0.14494446      -0.79031699        6 
C       0.45681464      -1.07522136      -0.25691075        6 
C      -0.53839878       1.33666978      -0.46986802        6 
C       1.50716456      -0.24056872       0.49222994        6 
O      -1.55091678       1.88834169       0.21966381        8 
O       0.39485565       1.98037770      -0.89193140        8 
O       2.61275227      -0.03671874      -0.24613393        8 
O       1.38127603       0.20398020       1.60914675        8 
C       3.57923176       0.87224579       0.30764353        6 
C      -1.42643987       3.29221049       0.51311572        6 
C      -2.00613978      -0.79664101      -0.06345934        6 
C      -1.90333928      -0.55356530       1.43426006        6 
C      -0.89344112      -1.29605437       1.89290124        6 
C      -0.31768077      -2.06268518       0.71042934        6 
C      -1.61542167      -2.29008091      -0.10280654        6 
C      -0.94707052      -0.17850256      -2.32199349        6 
C       1.14677783      -1.89359299      -1.36717559        6 
H       3.13136373       1.86061018       0.41947751        1 
H      -1.36195846       3.87118816      -0.40937793        1 
H      -0.47520818      -1.29409096       2.88817076        1 
H       4.39469828       0.90030533      -0.41181320        1 
H       3.93136884       0.51778529       1.27749017        1 
H      -2.32553778       3.55086966       1.06809433        1 
H      -0.53589865       3.47139636       1.11654640        1 
H       0.27805786      -2.94217000       0.95763000        1 
H      -2.94874493      -0.51525934      -0.53214413        1 
H       0.44868256      -2.57425029      -1.85142096        1 
H       1.59502766      -1.25667061      -2.12739739        1 
H       1.94674129      -2.49491005      -0.93009246        1 
H      -1.79548649       0.45522876      -2.59571666        1 
H      -0.06528416       0.20026611      -2.83817681        1 
H      -1.15876383      -1.18558606      -2.68003443        1 
H      -2.33032188      -2.91632624       0.43191521        1 
H      -1.46514336      -2.69660821      -1.10371060        1 
H      -2.48284822       0.17765571       1.97722299        1 
