35
Lattice="0.0 0.0 0.0 0.0 0.0 0.0 0.0 0.0 0.0" Properties=species:S:1:pos:R:3:Z:I:1 pbc="F F F"
C       1.21193725      -0.31991041      -0.38764822        6 
C       0.20812054       0.93048920      -0.58494532        6 
C       0.48312771      -1.66338086      -0.24608996        6 
C      -1.26171969       0.51750538      -0.59666627        6 
O      -0.40254691      -1.68347351       0.77228724        8 
O       0.65068574      -2.60968642      -0.97546526        8 
O      -2.01403656       1.20214255       0.28547552        8 
O      -1.73418972      -0.25401968      -1.39888398        8 
C      -3.42544738       0.92208196       0.26171706        6 
C      -1.24951324      -2.84386713       0.84389820        6 
C       1.99569074       0.12374801       0.92243793        6 
C       1.05081939       0.18025924       2.11216601        6 
C       0.23866794       1.22397008       1.93316747        6 
C       0.62268734       1.87818317       0.61575771        6 
C       2.14820437       1.63923130       0.65059064        6 
C       2.20865671      -0.50266090      -1.54599869        6 
C       0.38036723       1.67118611      -1.93048648        6 
H      -3.84419471       1.14694144      -0.72024388        1 
H      -0.65488068      -3.75257191       0.94348157        1 
H      -0.61534968       1.50324414       2.53191608        1 
H      -3.86109826       1.56628989       1.02248538        1 
H      -3.60839661      -0.12733343       0.49725354        1 
H      -1.87151487      -2.69308264       1.72415733        1 
H      -1.86278928      -2.90792058      -0.05653391        1 
H       0.27712867       2.90125559       0.47195790        1 
H       2.90935931      -0.45460288       1.06225801        1 
H       1.37772689       2.09625852      -2.03199181        1 
H       0.19194086       1.00649860      -2.77330922        1 
H      -0.33850513       2.49390060      -1.98235112        1 
H       2.88206573      -1.33025741      -1.31779998        1 
H       1.69709342      -0.75668543      -2.47385738        1 
H       2.81214058       0.38840851      -1.71159923        1 
H       2.62754649       2.15825770       1.48118167        1 
H       2.66904758       1.88533608      -0.27463745        1 
H       0.99336440      -0.56766504       2.89025864        1 
