35
Lattice="0.0 0.0 0.0 0.0 0.0 0.0 0.0 0.0 0.0" Properties=species:S:1:pos:R:3:Z:I:1 pbc="F F F"
C      -0.54128716      -0.81378873       0.54425611        6 
C      -0.56573140       0.81308385       0.55549541        6 
C       0.61617890      -1.38977442      -0.28545973        6 
C       0.56945230       1.43210067      -0.27461959        6 
O       1.62015908      -1.84851512       0.50421737        8 
O       0.69691684      -1.40475983      -1.48676017        8 
O       1.59091206       1.85257546       0.51451018        8 
O       0.62996167       1.49252226      -1.47536002        8 
C       2.73855139       2.37202882      -0.17894818        6 
C       2.76979990      -2.36486754      -0.18767044        6 
C      -1.94229539      -1.13942083      -0.14348133        6 
C      -1.93795033      -0.66976052      -1.58644104        6 
C      -1.96173138       0.66430687      -1.57387298        6 
C      -1.97988167       1.10484158      -0.12169937        6 
C      -2.82767962      -0.03773464       0.47934914        6 
C      -0.51251412      -1.43590562       1.95398265        6 
C      -0.54508082       1.41922413       1.97164932        6 
H       3.14156924       1.62451615      -0.86423400        1 
H       3.18997678      -1.60752849      -0.85124616        1 
H      -1.86412829       1.32777488      -2.41945544        1 
H       3.46108496       2.61408463       0.59756918        1 
H       2.47140540       3.26469683      -0.74701703        1 
H       3.48000291      -2.63388285       0.59136977        1 
H       2.49835364      -3.24136483      -0.77871380        1 
H      -2.31161036       2.12648638       0.06723669        1 
H      -2.24025001      -2.17519601       0.02473510        1 
H      -1.40788777       1.10115586       2.55416861        1 
H       0.35807560       1.15565899       2.51882382        1 
H      -0.57799751       2.50855427       1.89871125        1 
H      -0.52260456      -2.52465053       1.86888558        1 
H       0.38353577      -1.16028350       2.50685616        1 
H      -1.38283829      -1.14262882       2.53819138        1 
H      -3.83875318      -0.05156948       0.07124318        1 
H      -2.88313447      -0.04950472       1.56805899        1 
H      -1.81668780      -1.31380644      -2.44415385        1 
