35
Lattice="0.0 0.0 0.0 0.0 0.0 0.0 0.0 0.0 0.0" Properties=species:S:1:pos:R:3:Z:I:1 pbc="F F F"
C       0.73161615      -0.56019040      -0.75276129        6 
C       0.58768621       0.97266368      -0.29459255        6 
C      -0.47994410      -1.46295080      -0.49848527        6 
C      -0.76968451       1.35689600       0.28236843        6 
O      -1.06714715      -1.26270203       0.69792702        8 
O      -0.85512001      -2.32169833      -1.26217387        8 
O      -1.76229018       1.08269668      -0.59653951        8 
O      -0.95276234       1.94429331       1.31938266        8 
C      -3.09392661       1.41605806      -0.17332412        6 
C      -2.21546310      -2.07745294       0.98270996        6 
C       1.95270910      -1.03322901       0.17124570        6 
C       1.52367232      -1.00207891       1.62982241        6 
C       1.39382011       0.27841373       1.98640568        6 
C       1.74066012       1.12363779       0.77274048        6 
C       2.83216084       0.23550267       0.13661995        6 
C       1.10380247      -0.74041855      -2.23428309        6 
C       0.80416894       1.99145846      -1.44192379        6 
H      -3.34207446       0.88477676       0.74725591        1 
H      -1.94746836      -3.13505207       0.98278573        1 
H       0.99379041       0.66762481       2.91093284        1 
H      -3.74545164       1.09990090      -0.98530095        1 
H      -3.18679943       2.48958930      -0.00182292        1 
H      -2.55275789      -1.76558292       1.96889813        1 
H      -2.99378035      -1.90979883       0.23599938        1 
H       1.98757845       2.16537911       0.97079426        1 
H       2.39039243      -1.96489159      -0.18713857        1 
H       1.81322615       1.93196496      -1.84797490        1 
H       0.09269870       1.84056305      -2.25275326        1 
H       0.66474264       3.00371967      -1.05298971        1 
H       1.26119213      -1.79786656      -2.44499966        1 
H       0.30275102      -0.39620608      -2.89042942        1 
H       2.01417021      -0.20138376      -2.48982937        1 
H       3.71111319       0.14247773       0.77550179        1 
H       3.14849608       0.54130448      -0.86123354        1 
H       1.25557422      -1.87384886       2.21080928        1 
