35
Lattice="0.0 0.0 0.0 0.0 0.0 0.0 0.0 0.0 0.0" Properties=species:S:1:pos:R:3:Z:I:1 pbc="F F F"
C       0.61617888      -0.69811184      -0.71617761        6 
C       0.74721852       0.87984144      -0.40090995        6 
C      -0.79182145      -1.29899291      -0.56695432        6 
C      -0.45836884       1.59713640       0.20706720        6 
O      -1.12616282      -1.59841214       0.70422551        8 
O      -1.52421470      -1.53886303      -1.49670141        8 
O      -1.63651563       1.09131045      -0.19451397        8 
O      -0.36783609       2.60540592       0.86734422        8 
C      -2.82319573       1.77883267       0.23828067        6 
C      -2.44948781      -2.12351416       0.89200120        6 
C       1.67229998      -1.28723274       0.31505239        6 
C       1.24942338      -0.96966649       1.74517051        6 
C       1.41964865       0.34077534       1.94028476        6 
C       1.94342547       0.92101885       0.63544203        6 
C       2.81448212      -0.25547095       0.15672965        6 
C       1.04208541      -1.07159998      -2.15404825        6 
C       1.07993080       1.73258257      -1.64990271        6 
H      -2.92553780       1.70996736       1.32252471        1 
H      -2.57317009      -3.06284308       0.35051811        1 
H       1.13613822       0.92578198       2.80391194        1 
H      -3.64637865       1.27059278      -0.25943161        1 
H      -2.78420609       2.82871030      -0.05420606        1 
H      -2.55031098      -2.28226042       1.96386059        1 
H      -3.19356233      -1.40839283       0.53727030        1 
H       2.40370271       1.90516066       0.69470557        1 
H       1.90645849      -2.33205454       0.10865914        1 
H       2.02738288       1.43057114      -2.09410713        1 
H       0.30219384       1.65273077      -2.41219856        1 
H       1.16563321       2.77965707      -1.35371268        1 
H       1.02788170      -2.15850261      -2.26127792        1 
H       0.34704367      -0.66760266      -2.88794019        1 
H       2.04501890      -0.72629217      -2.39180940        1 
H       3.64403139      -0.45371597       0.83645971        1 
H       3.20214531      -0.15361959      -0.85644629        1 
H       0.80859795      -1.68332227       2.42484272        1 
