35
Lattice="0.0 0.0 0.0 0.0 0.0 0.0 0.0 0.0 0.0" Properties=species:S:1:pos:R:3:Z:I:1 pbc="F F F"
C       0.13271239      -1.00636631       0.49245716        6 
C      -1.14464999      -0.03997568       0.57489246        6 
C       1.48467566      -0.30167467       0.60774700        6 
C      -0.96122624       1.45291540       0.26254053        6 
O       2.31811167      -0.62412125      -0.40335636        8 
O       1.80856003       0.39764731       1.53599203        8 
O       0.24375485       1.79008965      -0.21689060        8 
O      -1.88319569       2.23632466       0.31026026        8 
C       0.39899390       3.14859470      -0.65796727        6 
C       3.62887275      -0.03583312      -0.35044699        6 
C      -0.13032204      -1.81207625      -0.83593337        6 
C      -0.14048385      -0.85016893      -2.01293470        6 
C      -1.26356198      -0.12985507      -1.93747040        6 
C      -1.99931047      -0.57456538      -0.68204389        6 
C      -1.65032522      -2.07306006      -0.69793180        6 
C       0.21350992      -2.00957105       1.67908961        6 
C      -1.95706859      -0.14877730       1.87110865        6 
H      -0.25491361       3.34700281      -1.50935068        1 
H       4.14777662      -0.33403971       0.56174893        1 
H      -1.55471937       0.70753768      -2.55790697        1 
H       1.44361719       3.24073558      -0.94695924        1 
H       0.16024547       3.84188352       0.14879673        1 
H       4.15038546      -0.40960785      -1.22914861        1 
H       3.55607376       1.05250614      -0.38084637        1 
H      -3.04627518      -0.28649143      -0.60576653        1 
H       0.52096088      -2.67900320      -0.93508274        1 
H      -2.31937500      -1.16393096       2.03246566        1 
H      -1.36142425       0.14577637       2.73773212        1 
H      -2.81855192       0.51613690       1.81134216        1 
H       1.08374105      -2.65680333       1.53740949        1 
H       0.33663580      -1.48703377       2.62696601        1 
H      -0.66344408      -2.64960819       1.74572559        1 
H      -2.06213761      -2.57720655      -1.57369153        1 
H      -1.94769784      -2.61766936       0.19802533        1 
H       0.67574213      -0.72894770      -2.71052282        1 
