35
Lattice="0.0 0.0 0.0 0.0 0.0 0.0 0.0 0.0 0.0" Properties=species:S:1:pos:R:3:Z:I:1 pbc="F F F"
C       0.08712596      -0.91886631       0.64446568        6 
C      -1.12393409       0.14009369       0.58165178        6 
C       1.50495503      -0.34271867       0.59023418        6 
C      -0.89449582       1.52900253      -0.04935914        6 
O       2.21413070      -0.82548626      -0.45409958        8 
O       1.97005600       0.41235330       1.40643241        8 
O       0.37375277       1.94496353      -0.10304890        8 
O      -1.80961235       2.16947751      -0.51729361        8 
C       0.60812478       3.20792231      -0.75019010        6 
C       3.56741409      -0.35318324      -0.56415191        6 
C      -0.28857093      -1.93775156      -0.49337585        6 
C      -0.32084017      -1.20892673      -1.82771978        6 
C      -1.40222887      -0.42347189      -1.83179929        6 
C      -2.08489238      -0.58752579      -0.47737297        6 
C      -1.80839598      -2.07969359      -0.23498258        6 
C       0.13358923      -1.68519054       2.00227932        6 
C      -1.83474758       0.38850163       1.92158691        6 
H       0.30492551       3.15846204      -1.79739698        1 
H       4.14499208      -0.63154828       0.31870945        1 
H      -1.69795608       0.29314120      -2.58524911        1 
H       1.67915038       3.37739330      -0.66424252        1 
H       0.05160549       4.00233590      -0.25190673        1 
H       3.97138638      -0.83265292      -1.45349650        1 
H       3.58091831       0.73236641      -0.67227035        1 
H      -3.11215824      -0.23701055      -0.41050340        1 
H       0.31658766      -2.84216166      -0.45977400        1 
H      -2.24245174      -0.53403904       2.33596583        1 
H      -1.15491850       0.82470080       2.65711416        1 
H      -2.66323893       1.08205014       1.76713792        1 
H       0.92154126      -2.44298265       1.95544043        1 
H       0.37184532      -1.00842836       2.82168735        1 
H      -0.79776285      -2.19805578       2.23235346        1 
H      -2.29611842      -2.70863594      -0.98147153        1 
H      -2.07533518      -2.43798165       0.75864510        1 
H       0.45151809      -1.27543460      -2.58060283        1 
