35
Lattice="0.0 0.0 0.0 0.0 0.0 0.0 0.0 0.0 0.0" Properties=species:S:1:pos:R:3:Z:I:1 pbc="F F F"
C      -0.61646367      -0.93344927       0.29849064        6 
C      -0.70810250       0.60621642       0.74733054        6 
C       0.72961489      -1.40322446      -0.24383096        6 
C       0.55031620       1.44701305       0.48826972        6 
O       1.75159871      -1.00127740       0.54371223        8 
O       0.86791508      -2.19653568      -1.14296882        8 
O       1.04239579       1.30347274      -0.75905480        8 
O       1.03542041       2.21036766       1.28915714        8 
C       2.24931540       2.02217197      -1.05305072        6 
C       3.05592025      -1.48383870       0.18214837        6 
C      -1.77268451      -1.06222608      -0.76645389        6 
C      -1.40277174      -0.23938039      -1.98620083        6 
C      -1.49514931       1.04827704      -1.64328909        6 
C      -1.91708139       1.10624476      -0.18376378        6 
C      -2.83640582      -0.13528024      -0.13898053        6 
C      -0.87699030      -1.93305969       1.45763305        6 
C      -1.07908065       0.81632361       2.22359031        6 
H       2.09907980       3.09674166      -0.93980798        1 
H       3.30961353      -1.16927372      -0.83176947        1 
H      -1.20751715       1.90507385      -2.23628510        1 
H       2.48789938       1.77384665      -2.08536817        1 
H       3.05119932       1.70183482      -0.38513433        1 
H       3.73928932      -1.04235187       0.90418046        1 
H       3.08972668      -2.57326229       0.23542115        1 
H      -2.32991575       2.05358880       0.16284537        1 
H      -2.05052282      -2.09793861      -0.95443208        1 
H      -2.01410635       0.32050368       2.47723629        1 
H      -0.29794820       0.44566804       2.88843003        1 
H      -1.19203584       1.88214024       2.42250306        1 
H      -0.78721190      -2.95306742       1.07636589        1 
H      -0.15855964      -1.80668182       2.26742076        1 
H      -1.88070070      -1.82119399       1.86534937        1 
H      -3.70994524      -0.02183399      -0.78242034        1 
H      -3.16667662      -0.42359012       0.85943179        1 
H      -1.02072742      -0.65083749      -2.90961825        1 
