35
Lattice="0.0 0.0 0.0 0.0 0.0 0.0 0.0 0.0 0.0" Properties=species:S:1:pos:R:3:Z:I:1 pbc="F F F"
C       0.39405765      -0.85178259       0.61126658        6 
C      -1.14408790      -0.39237323       0.41091214        6 
C       1.40537743       0.29469518       0.49769772        6 
C      -1.31820418       1.13470096       0.35167410        6 
O       2.47947050      -0.04277059      -0.24907626        8 
O       1.34167811       1.33581576       1.10436636        8 
O      -1.09603289       1.64835190      -0.87537878        8 
O      -1.59795731       1.82061405       1.30231162        8 
C      -1.11674457       3.08429183      -0.96260588        6 
C       3.52379985       0.94310949      -0.33060329        6 
C       0.56131033      -1.91973913      -0.55085945        6 
C       0.55031006      -1.17979061      -1.88043536        6 
C      -0.69228209      -0.73368063      -2.07571674        6 
C      -1.53792097      -1.18876195      -0.89656545        6 
C      -0.84825407      -2.54599527      -0.60164838        6 
C       0.69244500      -1.48024298       1.98686012        6 
C      -2.06633626      -0.83797842       1.56999362        6 
H      -2.09829528       3.47161942      -0.68535895        1 
H       3.90670769       1.17964228       0.66309691        1 
H      -1.04346551      -0.09317479      -2.87108071        1 
H      -0.89445561       3.31398401      -2.00298269        1 
H      -0.36039247       3.50673492      -0.29988894        1 
H       4.29979021       0.49232573      -0.94566600        1 
H       3.14804589       1.85556366      -0.79630914        1 
H      -2.61580162      -1.20001793      -1.06029957        1 
H       1.40225573      -2.59012023      -0.38101550        1 
H      -2.06018998      -1.91597497       1.71704361        1 
H      -1.78991564      -0.35220476       2.50403813        1 
H      -3.09324609      -0.54041345       1.34419282        1 
H       1.74235153      -1.78326677       2.02675875        1 
H       0.51289902      -0.76894503       2.79376837        1 
H       0.08565279      -2.36893169       2.16213858        1 
H      -0.95513197      -3.24966324      -1.42824398        1 
H      -1.16516780      -3.02899726       0.32221659        1 
H       1.42564527      -0.97692734      -2.47944985        1 
