35
Lattice="0.0 0.0 0.0 0.0 0.0 0.0 0.0 0.0 0.0" Properties=species:S:1:pos:R:3:Z:I:1 pbc="F F F"
C       0.91872649       0.51224987      -0.64674226        6 
C      -0.67465241       0.72213720      -0.34564700        6 
C       1.61942857      -0.86634257      -0.60973803        6 
C      -1.57270312      -0.46906962       0.05856010        6 
O       1.16989743      -1.71359358       0.31035298        8 
O       2.59912074      -1.10972269      -1.28393583        8 
O      -2.84364895      -0.28555011      -0.40141413        8 
O      -1.29699699      -1.42547505       0.73172669        8 
C      -3.79652802      -1.28991685      -0.02024188        6 
C       1.85820950      -2.96757074       0.43203339        6 
C       1.57168497       1.36994705       0.54030237        6 
C       1.26783355       0.68570767       1.85999404        6 
C      -0.03340033       0.85417175       2.10914819        6 
C      -0.61546793       1.65727822       0.95926210        6 
C       0.59093591       2.55729609       0.62708539        6 
C       1.34533292       1.13169546      -1.99786733        6 
C      -1.37332415       1.50560512      -1.48293503        6 
H      -3.50456534      -2.26567783      -0.41237126        1 
H       2.88821350      -2.81090688       0.75804417        1 
H      -0.61147805       0.40115512       2.90218220        1 
H      -4.74122951      -0.97071463      -0.45631816        1 
H      -3.87738745      -1.35416389       1.06621838        1 
H       1.29626216      -3.52485216       1.17831785        1 
H       1.86387163      -3.49713119      -0.52178411        1 
H      -1.57292837       2.14425296       1.14487129        1 
H       2.61897062       1.59098306       0.33686656        1 
H      -0.83519209       2.41443832      -1.73434243        1 
H      -1.46506117       0.90481564      -2.38954162        1 
H      -2.37759754       1.78886512      -1.17648694        1 
H       2.41730146       1.00050454      -2.12487281        1 
H       0.85723343       0.63394166      -2.83807912        1 
H       1.12595775       2.19412347      -2.05500617        1 
H       0.83513687       3.22931410       1.45069781        1 
H       0.49019378       3.13757820      -0.28919188        1 
H       1.96339084       0.06968797       2.41252434        1 
