35
Lattice="0.0 0.0 0.0 0.0 0.0 0.0 0.0 0.0 0.0" Properties=species:S:1:pos:R:3:Z:I:1 pbc="F F F"
C      -0.62256078       0.29608380       0.72355692        6 
C       0.84627703       0.81617125       0.33043653        6 
C      -1.05011900      -1.02792375       0.07111671        6 
C       1.75404352      -0.19937814      -0.36326110        6 
O      -2.40463309      -1.08579336       0.00164497        8 
O      -0.36061911      -1.96400593      -0.24534680        8 
O       2.11694525      -1.18649864       0.47643765        8 
O       2.23074781      -0.05701184      -1.46445433        8 
C       2.87242698      -2.26310138      -0.09887861        6 
C      -2.95907286      -2.30725240      -0.51501837        6 
C      -1.52842584       1.44626918       0.08046036        6 
C      -1.45253766       1.23644515      -1.42842642        6 
C      -0.21784111       1.57202313      -1.81381927        6 
C       0.53114230       2.05333288      -0.58210812        6 
C      -0.63427795       2.68916868       0.21255755        6 
C      -0.86982788       0.13216092       2.23187082        6 
C       1.67726504       1.28577418       1.55650194        6 
H       2.26505076      -2.77541126      -0.84676269        1 
H      -2.67910090      -3.15304206       0.11525321        1 
H       0.22951267       1.44494280      -2.78868798        1 
H       3.09895722      -2.93378318       0.72740880        1 
H       3.79002816      -1.89275786      -0.55812855        1 
H      -4.03749082      -2.16282476      -0.50440405        1 
H      -2.60630208      -2.48752286      -1.53183341        1 
H       1.41109378       2.66518649      -0.77444635        1 
H      -2.52575742       1.48701976       0.51283445        1 
H       1.20532396       2.11334782       2.08452089        1 
H       1.84526652       0.47365568       2.26129379        1 
H       2.65463134       1.63308590       1.20999918        1 
H      -1.90768819      -0.15934962       2.40389844        1 
H      -0.22098514      -0.63635023       2.65768600        1 
H      -0.68994651       1.06688286       2.76368747        1 
H      -1.05989518       3.55428654      -0.29831213        1 
H      -0.39297561       2.96390782       1.23976976        1 
H      -2.23037835       0.78276302      -2.02718822        1 
