35
Lattice="0.0 0.0 0.0 0.0 0.0 0.0 0.0 0.0 0.0" Properties=species:S:1:pos:R:3:Z:I:1 pbc="F F F"
C       1.13911368      -0.40634836      -0.42397258        6 
C       0.31775733       0.97612630      -0.56745782        6 
C       0.30374937      -1.68103839      -0.26379762        6 
C      -1.20067151       0.77980180      -0.64989552        6 
O      -0.82218206      -1.49995565       0.45275205        8 
O       0.62345444      -2.76149733      -0.70038354        8 
O      -1.86976455       1.17286327       0.44931503        8 
O      -1.76632428       0.45117579      -1.66777780        8 
C      -3.29742025       1.02351502       0.39656985        6 
C      -1.66557583      -2.65296111       0.61999207        6 
C       1.98327709      -0.14391467       0.90513078        6 
C       1.04297982      -0.06795701       2.09481528        6 
C       0.35054735       1.06767109       1.98340173        6 
C       0.81592871       1.76774612       0.71567931        6 
C       2.30700846       1.35658128       0.73705953        6 
C       2.09969196      -0.67096263      -1.59906192        6 
C       0.66224457       1.78249453      -1.83880203        6 
H      -3.72131106       1.63602910      -0.40081943        1 
H      -1.11186389      -3.46983945       1.08427787        1 
H      -0.46999582       1.39987265       2.60047908        1 
H      -3.66057161       1.35220042       1.36820386        1 
H      -3.56154294      -0.02047871       0.22039957        1 
H      -2.47784300      -2.32450517       1.26491263        1 
H      -2.05002557      -2.98157942      -0.34695791        1 
H       0.59276470       2.83247362       0.65112169        1 
H       2.81878586      -0.83842431       0.98844338        1 
H       1.71841608       2.04089542      -1.88446093        1 
H       0.39072734       1.23487236      -2.73963703        1 
H       0.09137024       2.71489753      -1.83440639        1 
H       2.64215111      -1.59943321      -1.42385898        1 
H       1.55406568      -0.78451432      -2.53733713        1 
H       2.82474062       0.13278399      -1.71770382        1 
H       2.83331595       1.76025169       1.60257426        1 
H       2.86304272       1.60070968      -0.16772910        1 
H       0.89807401      -0.85788583       2.81936196        1 
