35
Lattice="0.0 0.0 0.0 0.0 0.0 0.0 0.0 0.0 0.0" Properties=species:S:1:pos:R:3:Z:I:1 pbc="F F F"
C       0.70314044      -0.62130416      -0.74179973        6 
C       0.63906968       0.92793051      -0.31232303        6 
C      -0.58868330      -1.41437374      -0.50748957        6 
C      -0.68261722       1.41245060       0.27160363        6 
O      -1.03873608      -1.35648933       0.76264079        8 
O      -1.15178029      -2.06038332      -1.35911538        8 
O      -1.72833587       1.03638340      -0.49756607        8 
O      -0.79059030       2.17652026       1.19943396        8 
C      -3.02251465       1.52087955      -0.10328480        6 
C      -2.28182759      -2.02971575       1.01752226        6 
C       1.89202013      -1.13373784       0.19860935        6 
C       1.47881130      -1.03079306       1.65910075        6 
C       1.42960854       0.26522090       1.97761672        6 
C       1.81331416       1.04926034       0.73536550        6 
C       2.84578985       0.08064711       0.12031371        6 
C       1.08109602      -0.85073024      -2.21575582        6 
C       0.88042985       1.90796429      -1.48850982        6 
H      -3.25798067       1.19727500       0.91195559        1 
H      -2.19551081      -3.09643841       0.80592429        1 
H       1.06425570       0.70634913       2.89357439        1 
H      -3.72236110       1.08957226      -0.81604392        1 
H      -3.05298578       2.61078230      -0.14704467        1 
H      -2.49017210      -1.86248957       2.07230305        1 
H      -3.07385999      -1.60740252       0.39643940        1 
H       2.11796883       2.08186087       0.89607287        1 
H       2.27719511      -2.10005803      -0.12796936        1 
H       1.87130182       1.77687102      -1.92122586        1 
H       0.13793830       1.77950554      -2.27623502        1 
H       0.81342027       2.93457107      -1.11991671        1 
H       1.17747389      -1.92052764      -2.40434758        1 
H       0.30995386      -0.47568583      -2.88895862        1 
H       2.02570245      -0.37434411      -2.46948114        1 
H       3.72155958      -0.04501677       0.75801783        1 
H       3.17456988       0.34005257      -0.88653955        1 
H       1.16935319      -1.86680101       2.27007125        1 
