35
Lattice="0.0 0.0 0.0 0.0 0.0 0.0 0.0 0.0 0.0" Properties=species:S:1:pos:R:3:Z:I:1 pbc="F F F"
C      -0.56716028      -0.97867089       0.29337024        6 
C      -0.73266578       0.54818033       0.76311602        6 
C       0.80299529      -1.34276374      -0.27131291        6 
C       0.46247238       1.47388734       0.50493777        6 
O       1.78022631      -1.09751372       0.63134816        8 
O       1.00387798      -1.89167555      -1.32616807        8 
O       1.07077504       1.24475279      -0.67492010        8 
O       0.79894075       2.37068112       1.24218288        8 
C       2.17218558       2.10222949      -1.00913081        6 
C       3.11614476      -1.41604384       0.21015960        6 
C      -1.70882859      -1.13108741      -0.78704261        6 
C      -1.37141368      -0.25983436      -1.98420861        6 
C      -1.53007124       1.01311350      -1.61165091        6 
C      -1.96414648       1.01244646      -0.15566218        6 
C      -2.82080227      -0.27247189      -0.14565387        6 
C      -0.79284199      -2.01189689       1.42609547        6 
C      -1.10622767       0.71355518       2.24485147        6 
H       1.83982964       3.13842675      -1.09058686        1 
H       3.36894063      -0.85995031      -0.69435008        1 
H      -1.28097093       1.89790021      -2.18154393        1 
H       2.53650036       1.74041716      -1.96849606        1 
H       2.95192876       2.03749206      -0.24834177        1 
H       3.76065635      -1.12083937       1.03522024        1 
H       3.21161001      -2.48439210       0.00982290        1 
H      -2.42005725       1.92981908       0.21593827        1 
H      -1.93773020      -2.17317045      -1.00563500        1 
H      -2.01323625       0.16573228       2.49477756        1 
H      -0.30360736       0.36904350       2.89910263        1 
H      -1.27198612       1.76819945       2.46310045        1 
H      -0.64128284      -3.01864337       1.02727296        1 
H      -0.09479729      -1.86685114       2.24932136        1 
H      -1.80795042      -1.96498351       1.81845703        1 
H      -3.69605377      -0.18665506      -0.79094225        1 
H      -3.13997218      -0.59794350       0.84489640        1 
H      -0.96367923      -0.62930294      -2.91359604        1 
