35
Lattice="0.0 0.0 0.0 0.0 0.0 0.0 0.0 0.0 0.0" Properties=species:S:1:pos:R:3:Z:I:1 pbc="F F F"
C      -0.27438538      -0.99875860       0.56112290        6 
C      -1.13232080       0.36712345       0.46684773        6 
C       1.25017270      -0.80859653       0.64830188        6 
C      -0.36290814       1.68028519       0.27993501        6 
O       1.89919616      -1.05526822      -0.50532892        8 
O       1.83635694      -0.63590816       1.69183758        8 
O       0.85380732       1.52533713      -0.26661338        8 
O      -0.82173541       2.76786074       0.54195982        8 
C       1.59640981       2.72673457      -0.53500690        6 
C       3.32777957      -0.92977250      -0.45941996        6 
C      -0.75531568      -1.74763859      -0.75698886        6 
C      -0.32910910      -0.96649504      -1.99245332        6 
C      -1.07431799       0.14008757      -2.05094059        6 
C      -2.00242702       0.11979206      -0.85132058        6 
C      -2.26279399      -1.39656131      -0.74815879        6 
C      -0.61991017      -1.86143448       1.79411840        6 
C      -2.07476883       0.58540760       1.66618871        6 
H       1.03488331       3.37836265      -1.20581686        1 
H       3.75668667      -1.64548395       0.24370258        1 
H      -0.97783116       0.96341358      -2.74631341        1 
H       2.51856119       2.39555234      -1.00757425        1 
H       1.80787581       3.25845099       0.39350297        1 
H       3.66991323      -1.13457880      -1.47212613        1 
H       3.60974201       0.07963906      -0.15549987        1 
H      -2.86445151       0.78467050      -0.88834554        1 
H      -0.48754616      -2.80415153      -0.75104859        1 
H      -2.79371351      -0.22674707       1.76825642        1 
H      -1.51764720       0.66963617       2.60129560        1 
H      -2.62622513       1.51412887       1.52459185        1 
H      -0.03531358      -2.78409746       1.75873641        1 
H      -0.36568353      -1.34888078       2.72004554        1 
H      -1.67204574      -2.13651060       1.81867796        1 
H      -2.78083386      -1.78217891      -1.62728498        1 
H      -2.80022475      -1.70494898       0.14784560        1 
H       0.49404619      -1.23837549      -2.63495962        1 
