35
Lattice="0.0 0.0 0.0 0.0 0.0 0.0 0.0 0.0 0.0" Properties=species:S:1:pos:R:3:Z:I:1 pbc="F F F"
C       0.74229887      -0.54887401       0.60930090        6 
C      -0.85494382      -0.69540366       0.49890130        6 
C       1.30014983       0.82247236       0.19559954        6 
C      -1.62131245       0.63253532       0.47501964        6 
O       2.61336744       0.69972002      -0.13091617        8 
O       0.74814377       1.89115982       0.22241490        8 
O      -2.22034628       0.86310223      -0.71200343        8 
O      -1.72420606       1.37060806       1.42167598        8 
C      -2.93325920       2.10865817      -0.81982692        6 
C       3.28549660       1.91825620      -0.48944140        6 
C       1.21689919      -1.59165465      -0.50927528        6 
C       0.90251874      -0.93195211      -1.84643471        6 
C      -0.42679983      -0.92833683      -1.98105873        6 
C      -1.01662620      -1.62146185      -0.76147931        6 
C       0.10370177      -2.65342688      -0.48225200        6 
C       1.32151248      -0.86836706       1.99598878        6 
C      -1.48180228      -1.40960760       1.73033898        6 
H      -3.74555424       2.14856718      -0.09233977        1 
H       3.23691709       2.63989307       0.32746899        1 
H      -1.01024274      -0.45289167      -2.75576748        1 
H      -3.32586596       2.13081193      -1.83455722        1 
H      -2.25297531       2.94339073      -0.64751814        1 
H       4.31617937       1.63290091      -0.68952952        1 
H       2.82986059       2.35721633      -1.37921450        1 
H      -2.03216681      -1.99818778      -0.87671960        1 
H       2.24178852      -1.92519088      -0.36264787        1 
H      -1.06428103      -2.39843090       1.90507480        1 
H      -1.35721919      -0.81079867       2.63090830        1 
H      -2.55571893      -1.53008152       1.56050862        1 
H       2.40793770      -0.76794552       1.97453313        1 
H       0.92680133      -0.18674465       2.75257398        1 
H       1.08474823      -1.88950390       2.29748122        1 
H       0.21146003      -3.37458014      -1.29414120        1 
H       0.01327125      -3.19224021       0.46060638        1 
H       1.63241703      -0.45838993      -2.48838503        1 
