35
Lattice="0.0 0.0 0.0 0.0 0.0 0.0 0.0 0.0 0.0" Properties=species:S:1:pos:R:3:Z:I:1 pbc="F F F"
C      -0.63119730       0.33126043       0.71378695        6 
C       0.86838661       0.78042579       0.36646924        6 
C      -1.08246994      -0.96635399       0.03584655        6 
C       1.73015154      -0.27500269      -0.32821478        6 
O      -2.43036565      -1.08336583       0.12412480        8 
O      -0.40103141      -1.81346242      -0.48401137        8 
O       2.07037207      -1.26577628       0.52130692        8 
O       2.16896336      -0.18252027      -1.44879318        8 
C       2.75939332      -2.38189807      -0.06389138        6 
C      -3.00337679      -2.26185057      -0.46775862        6 
C      -1.47513463       1.51146948       0.04366270        6 
C      -1.36315557       1.29995827      -1.46134331        6 
C      -0.10546662       1.58860329      -1.80918864        6 
C       0.62781728       2.03331911      -0.55331368        6 
C      -0.53393444       2.71617338       0.20781495        6 
C      -0.92612300       0.19516765       2.21694488        6 
C       1.69278874       1.21059593       1.60881179        6 
H       2.11548977      -2.85800041      -0.80495825        1 
H      -2.60572907      -3.16146654       0.00471061        1 
H       0.36359175       1.44413603      -2.77097110        1 
H       2.96222344      -3.06364593       0.75970182        1 
H       3.68899642      -2.06045945      -0.53554652        1 
H      -4.07464733      -2.18110974      -0.29529182        1 
H      -2.78852001      -2.29475482      -1.53722933        1 
H       1.53659231       2.61032088      -0.71772927        1 
H      -2.48167706       1.58663534       0.45042221        1 
H       1.25183921       2.06467091       2.12151696        1 
H       1.80447402       0.39557038       2.32187472        1 
H       2.69504488       1.50440538       1.28469045        1 
H      -1.97986411      -0.04336625       2.36549122        1 
H      -0.32676441      -0.59971407       2.66680592        1 
H      -0.71006464       1.12421902       2.74471630        1 
H      -0.90655881       3.59961973      -0.31269350        1 
H      -0.31298310       2.97678394       1.24323968        1 
H      -2.13756441       0.87211396      -2.08442906        1 
