35
Lattice="0.0 0.0 0.0 0.0 0.0 0.0 0.0 0.0 0.0" Properties=species:S:1:pos:R:3:Z:I:1 pbc="F F F"
C      -0.35011149      -1.05408011       0.21251318        6 
C      -0.73964740       0.37099385       0.81155733        6 
C       1.09549792      -1.26217728      -0.22275798        6 
C       0.11415838       1.58884094       0.41412749        6 
O       1.95883492      -0.79990912       0.70882480        8 
O       1.43803795      -1.98213877      -1.13049420        8 
O       1.07335083       1.34522921      -0.49324947        8 
O      -0.17350807       2.71226771       0.76199244        8 
C       1.69788318       2.49289044      -1.09072363        6 
C       3.35009176      -1.03841126       0.45293951        6 
C      -1.41682641      -1.28263628      -0.91556255        6 
C      -1.26775545      -0.20074585      -1.97071797        6 
C      -1.70995909       0.94496535      -1.44325673        6 
C      -2.11326073       0.65254544      -0.00350727        6 
C      -2.68310194      -0.76527091      -0.18657700        6 
C      -0.49483544      -2.20574241       1.26013311        6 
C      -0.97378194       0.42060456       2.32407241        6 
H       0.95335790       3.10159909      -1.60719013        1 
H       3.65076001      -0.55918194      -0.48071116        1 
H      -1.67314497       1.93236156      -1.88443114        1 
H       2.41966815       2.09151057      -1.79890697        1 
H       2.19468903       3.09979627      -0.33301729        1 
H       3.88103448      -0.59733640       1.29405250        1 
H       3.55408633      -2.10840880       0.38719615        1 
H      -2.72773974       1.40242696       0.49038554        1 
H      -1.42296100      -2.30707094      -1.28320798        1 
H      -1.78035621      -0.24812866       2.62569339        1 
H      -0.07155887       0.14119664       2.87306807        1 
H      -1.24822713       1.43595413       2.61099405        1 
H      -0.26243035      -3.15502696       0.77224847        1 
H       0.19367212      -2.07465110       2.09429551        1 
H      -1.50389959      -2.27599489       1.65941479        1 
H      -3.55889837      -0.76816509      -0.83702143        1 
H      -2.92853621      -1.28152304       0.74101542        1 
H      -0.79906043      -0.34816993      -2.93400854        1 
