35
Lattice="0.0 0.0 0.0 0.0 0.0 0.0 0.0 0.0 0.0" Properties=species:S:1:pos:R:3:Z:I:1 pbc="F F F"
C      -0.10106139      -0.90815232       0.51688462        6 
C      -0.93667862       0.48261813       0.62537710        6 
C       1.26617173      -0.92097681      -0.20419962        6 
C      -0.29234730       1.83157128       0.25190353        6 
O       2.23817138      -1.44890379       0.58407294        8 
O       1.50590437      -0.52806192      -1.31636651        8 
O       0.93775334       1.76168578      -0.25723830        8 
O      -0.83328713       2.88790323       0.49695734        8 
C       1.55673687       3.00363945      -0.63292761        6 
C       3.54730326      -1.51593178      -0.00320668        6 
C      -1.08422059      -1.72713669      -0.47240344        6 
C      -1.07877178      -1.05521736      -1.83864773        6 
C      -1.74615715       0.09650274      -1.72482192        6 
C      -2.20458045       0.20846373      -0.28560665        6 
C      -2.47203973      -1.27864409       0.02704268        6 
C       0.00585057      -1.66779174       1.85150941        6 
C      -1.43043197       0.73708929       2.07840269        6 
H       0.92616369       3.54255376      -1.34105543        1 
H       3.89256165      -0.51881935      -0.28138569        1 
H      -1.85473860       0.87098584      -2.47238083        1 
H       2.49866059       2.72107052      -1.09779529        1 
H       1.72688844       3.62892881       0.24517397        1 
H       4.18779731      -1.94381822       0.76544004        1 
H       3.53824166      -2.14949028      -0.89180502        1 
H      -3.00200761       0.92216737      -0.08441325        1 
H      -0.86780115      -2.79600803      -0.46161567        1 
H      -2.03579194      -0.08210969       2.45860747        1 
H      -0.59574350       0.89158953       2.76579938        1 
H      -2.03640266       1.64109318       2.08461199        1 
H       0.47944279      -2.63549375       1.68753206        1 
H       0.61046849      -1.12950802       2.58203142        1 
H      -0.97321300      -1.85067053       2.28689565        1 
H      -3.27698644      -1.68375194      -0.58771623        1 
H      -2.67614256      -1.50077883       1.07381792        1 
H      -0.53439427      -1.41362596      -2.69926150        1 
