35
Lattice="0.0 0.0 0.0 0.0 0.0 0.0 0.0 0.0 0.0" Properties=species:S:1:pos:R:3:Z:I:1 pbc="F F F"
C      -0.41201516      -1.03804824       0.23850622        6 
C      -0.75017827       0.41930035       0.79616385        6 
C       1.01702757      -1.27357979      -0.23503370        6 
C       0.20617310       1.56711268       0.43839058        6 
O       1.90782722      -0.92167645       0.72014314        8 
O       1.32498942      -1.88644713      -1.22820979        8 
O       1.08297652       1.27628186      -0.53663657        8 
O       0.08481935       2.68371230       0.88844063        8 
C       1.85516173       2.36682818      -1.06326601        6 
C       3.28905204      -1.15358274       0.40865034        6 
C      -1.49255785      -1.25023246      -0.88529200        6 
C      -1.28165549      -0.22286219      -1.98215382        6 
C      -1.65292450       0.96705541      -1.50032074        6 
C      -2.08123062       0.75652990      -0.05524007        6 
C      -2.72954049      -0.63585635      -0.18256171        6 
C      -0.58508650      -2.15865813       1.30700845        6 
C      -1.03917432       0.49636612       2.29979058        6 
H       1.19691443       3.13815849      -1.46636981        1 
H       3.58244943      -0.56713884      -0.46437573        1 
H      -1.55073734       1.93159182      -1.98047034        1 
H       2.46272717       1.93204352      -1.85411471        1 
H       2.48449756       2.80156758      -0.28548682        1 
H       3.84466959      -0.83083215       1.28668696        1 
H       3.46815859      -2.21066261       0.20649246        1 
H      -2.65770311       1.55818252       0.40307373        1 
H      -1.55611553      -2.28671426      -1.21214535        1 
H      -1.88850005      -0.12864239       2.57700015        1 
H      -0.17403478       0.18000615       2.88674592        1 
H      -1.27049108       1.52685527       2.56859045        1 
H      -0.36237470      -3.12449342       0.84625383        1 
H       0.09455403      -2.02071656       2.14670378        1 
H      -1.60178199      -2.20346971       1.69160273        1 
H      -3.60565034      -0.61915111      -0.83224273        1 
H      -2.99672432      -1.10048393       0.76632160        1 
H      -0.81732916      -0.43595832      -2.93481351        1 
