35
Lattice="0.0 0.0 0.0 0.0 0.0 0.0 0.0 0.0 0.0" Properties=species:S:1:pos:R:3:Z:I:1 pbc="F F F"
C       0.57934528      -0.64939977      -0.74988374        6 
C       0.69655950       0.91899347      -0.36083063        6 
C      -0.81778380      -1.26421918      -0.58231376        6 
C      -0.47591688       1.56129257       0.39110027        6 
O      -0.96789201      -1.95955280       0.56483781        8 
O      -1.70627226      -1.15986723      -1.39157492        8 
O      -1.65622972       1.32993482      -0.20344874        8 
O      -0.35417709       2.29148782       1.34680602        8 
C      -2.81058288       1.96797937       0.36833213        6 
C      -2.26352219      -2.54866668       0.77333551        6 
C       1.71063402      -1.27468923       0.15740671        6 
C       1.38200868      -1.06220269       1.62911552        6 
C       1.53813168       0.23655459       1.89666890        6 
C       1.95540237       0.91523180       0.59859574        6 
C       2.81824619      -0.20634658      -0.01279368        6 
C       0.90678557      -0.93110255      -2.23935693        6 
C       0.91668914       1.84669219      -1.57506136        6 
H      -2.94535380       1.65636085       1.40534989        1 
H      -2.49699347      -3.25297570      -0.02657936        1 
H       1.30819315       0.75737897       2.81424279        1 
H      -3.64865029       1.64250674      -0.24407059        1 
H      -2.70345284       3.05328272       0.33196500        1 
H      -2.19846774      -3.06150142       1.73065439        1 
H      -3.03201610      -1.77458730       0.80205629        1 
H       2.40167275       1.90316782       0.69717303        1 
H       1.95079039      -2.29777477      -0.13283582        1 
H       1.84068347       1.60695178      -2.10099691        1 
H       0.08667677       1.77989980      -2.27952839        1 
H       0.99183955       2.88123569      -1.23034639        1 
H       0.90289443      -2.01172307      -2.40660783        1 
H       0.15377951      -0.49716279      -2.89520708        1 
H       1.88596322      -0.55732290      -2.52906180        1 
H       3.69705479      -0.42589736       0.59467893        1 
H       3.13353986      -0.02936257      -1.04140285        1 
H       1.00562338      -1.83079471       2.28754019        1 
