35
Lattice="0.0 0.0 0.0 0.0 0.0 0.0 0.0 0.0 0.0" Properties=species:S:1:pos:R:3:Z:I:1 pbc="F F F"
C       0.91947077       0.69775829      -0.51782466        6 
C      -0.69010968       0.65059683      -0.50737138        6 
C       1.61706898      -0.67556073      -0.45526690        6 
C      -1.28716026      -0.73457930      -0.26783130        6 
O       1.77387714      -1.15483667       0.79111976        8 
O       2.09187354      -1.21975826      -1.42393059        8 
O      -2.62286321      -0.63857331      -0.06471784        8 
O      -0.71005414      -1.79273752      -0.25082984        8 
C      -3.32260627      -1.87942476       0.13751839        6 
C       2.28899510      -2.49304100       0.88142406        6 
C       1.18941078       1.60818928       0.76105898        6 
C       0.68435710       0.91276229       2.01917704        6 
C      -0.65067220       0.92369034       1.98220158        6 
C      -1.05745160       1.61935953       0.69486804        6 
C       0.07050374       2.66295914       0.58910880        6 
C       1.51128711       1.38578147      -1.76555786        6 
C      -1.32839204       1.15857323      -1.82227624        6 
H      -3.21002105      -2.52592035      -0.73429656        1 
H       3.28805089      -2.55516426       0.44731821        1 
H      -1.33425089       0.43463209       2.66337502        1 
H      -4.36561349      -1.60367728       0.27771946        1 
H      -2.93902760      -2.39608665       1.01846150        1 
H       2.31725163      -2.72194848       1.94508378        1 
H       1.61964368      -3.17777865       0.35893955        1 
H      -2.08509445       1.97350576       0.63779279        1 
H       2.21755704       1.96819239       0.79666864        1 
H      -1.01531480       2.17664988      -2.04964366        1 
H      -1.05828708       0.52414079      -2.66962432        1 
H      -2.41422626       1.15368814      -1.72618936        1 
H       2.59671419       1.44261289      -1.66018765        1 
H       1.30810055       0.81308998      -2.66908465        1 
H       1.13456466       2.39767997      -1.89660787        1 
H       0.04375505       3.37752343       1.41323223        1 
H       0.09490403       3.20889109      -0.35393349        1 
H       1.31574979       0.42235016       2.74394036        1 
