35
Lattice="0.0 0.0 0.0 0.0 0.0 0.0 0.0 0.0 0.0" Properties=species:S:1:pos:R:3:Z:I:1 pbc="F F F"
C       0.99778544      -0.45136635      -0.47899887        6 
C       0.07042597       0.86580349      -0.53444082        6 
C       0.39862277      -1.79675891      -0.04358687        6 
C      -1.25034110       0.81489433       0.25642323        6 
O      -0.94065483      -1.80329982       0.03932166        8 
O       1.04104355      -2.82342292      -0.04497494        8 
O      -2.28330870       1.32818990      -0.45877693        8 
O      -1.40285279       0.40724974       1.37954787        8 
C      -3.55820242       1.33484654       0.20293203        6 
C      -1.56498882      -3.08144295       0.24899188        6 
C       2.24171451       0.00476913       0.37493996        6 
C       1.78866688       0.30245541       1.79159807        6 
C       1.06513941       1.42454410       1.75137750        6 
C       1.01237849       1.88481053       0.30066502        6 
C       2.41859689       1.44556292      -0.15529561        6 
C       1.51044257      -0.84206218      -1.90711536        6 
C      -0.16307086       1.42355762      -1.94685780        6 
H      -3.85416299       0.31908098       0.47023348        1 
H      -1.20539215      -3.53423017       1.17327791        1 
H       0.50471324       1.86818170       2.56121162        1 
H      -4.25535424       1.76067459      -0.51615223        1 
H      -3.52037759       1.94358056       1.10776330        1 
H      -2.63047074      -2.87218085       0.31592812        1 
H      -1.35267823      -3.75076272      -0.58661109        1 
H       0.72740847       2.92383587       0.13319955        1 
H       3.07925664      -0.68225610       0.26816986        1 
H       0.77705012       1.62523535      -2.45534373        1 
H      -0.74774692       0.73874005      -2.56306205        1 
H      -0.71554068       2.36019756      -1.88798499        1 
H       2.18555658      -1.69080699      -1.81243296        1 
H       0.68606132      -1.14058517      -2.55889553        1 
H       2.04601282      -0.03019656      -2.39252480        1 
H       3.20685511       1.98277849       0.37289213        1 
H       2.59034398       1.52330771      -1.22811576        1 
H       1.93480266      -0.35584151       2.63736688        1 
