35
Lattice="0.0 0.0 0.0 0.0 0.0 0.0 0.0 0.0 0.0" Properties=species:S:1:pos:R:3:Z:I:1 pbc="F F F"
C      -0.34845937      -0.86117042       0.51238597        6 
C      -0.76284514       0.70503712       0.58775407        6 
C       0.94261617      -1.10664327      -0.27992843        6 
C       0.19664523       1.62800468      -0.17655400        6 
O       1.84442269      -1.84343576       0.41173811        8 
O       1.16068009      -0.72475693      -1.40296205        8 
O       1.27101932       1.93573731       0.59448531        8 
O       0.11995257       1.96668064      -1.32741405        8 
C       2.32186449       2.65893512      -0.07120599        6 
C       3.06813381      -2.14109570      -0.28112496        6 
C      -1.59804269      -1.48230447      -0.26000532        6 
C      -1.65342776      -0.94143921      -1.67546712        6 
C      -2.01195097       0.34210870      -1.60070455        6 
C      -2.18468035       0.68081422      -0.12817236        6 
C      -2.74722119      -0.66695239       0.37461761        6 
C      -0.24014759      -1.51541439       1.90359292        6 
C      -0.91817827       1.25352888       2.02022173        6 
H       2.67618759       2.09304880      -0.93425626        1 
H       3.58773773      -1.22078205      -0.55245474        1 
H      -2.05829657       1.05555563      -2.40835362        1 
H       3.11002516       2.77392776       0.67000542        1 
H       1.96480097       3.63419904      -0.40599435        1 
H       3.66192211      -2.72550748       0.41866019        1 
H       2.86583432      -2.71504888      -1.18696907        1 
H      -2.76659277       1.57686648       0.08951363        1 
H      -1.63385103      -2.56723327      -0.15491504        1 
H      -1.71485601       0.74290400       2.56026942        1 
H       0.00271246       1.17350961       2.59591221        1 
H      -1.18205092       2.31341505       1.97195977        1 
H      -0.05469118      -2.58449333       1.79382836        1 
H       0.58247677      -1.10076641       2.48554294        1 
H      -1.15721409      -1.39577378       2.47724574        1 
H      -3.71056580      -0.90160523      -0.07877088        1 
H      -2.83096441      -0.75648890       1.45795742        1 
H      -1.34209325      -1.48280265      -2.55717450        1 
