35
Lattice="0.0 0.0 0.0 0.0 0.0 0.0 0.0 0.0 0.0" Properties=species:S:1:pos:R:3:Z:I:1 pbc="F F F"
C       1.20547771      -0.07819512      -0.45807972        6 
C       0.00365445       0.98299034      -0.51876730        6 
C       0.80656064      -1.54481291      -0.25112301        6 
C      -1.37585290       0.33833431      -0.58924078        6 
O      -0.23782066      -1.71230668       0.58212877        8 
O       1.40732650      -2.47812077      -0.72925094        8 
O      -2.23832309       0.84660174       0.31292528        8 
O      -1.69906064      -0.47049652      -1.42700174        8 
C      -3.58206027       0.33547641       0.25236038        6 
C      -0.71735828      -3.05857829       0.73523804        6 
C       1.98914220       0.43284419       0.84186592        6 
C       1.12085230       0.21008311       2.07040605        6 
C       0.10525647       1.07381707       2.00650684        6 
C       0.28285446       1.89523553       0.74099220        6 
C       1.82849268       1.96047471       0.69066401        6 
C       2.13509468      -0.04501348      -1.68115534        6 
C       0.01360400       1.86383859      -1.79737285        6 
H      -4.03284435       0.55919376      -0.71576308        1 
H       0.07207075      -3.70995074       1.11192492        1 
H      -0.75966916       1.12141381       2.65207411        1 
H      -4.12080332       0.83897216       1.05228909        1 
H      -3.58379653      -0.74442710       0.40668815        1 
H      -1.53650261      -2.99408865       1.44869817        1 
H      -1.07407446      -3.43694572      -0.22399910        1 
H      -0.26478607       2.83553185       0.70072076        1 
H       3.00094413       0.03070877       0.88570813        1 
H       0.92078281       2.46043923      -1.87516696        1 
H      -0.08453323       1.25508351      -2.69563727        1 
H      -0.83380182       2.55467399      -1.76449983        1 
H       2.95741488      -0.74481473      -1.53637559        1 
H       1.60568436      -0.35075835      -2.58516047        1 
H       2.55213788       0.94753569      -1.84433447        1 
H       2.24514322       2.50298039       1.54006180        1 
H       2.24163571       2.36887350      -0.23183107        1 
H       1.25269138      -0.59562394       2.77967344        1 
