35
Lattice="0.0 0.0 0.0 0.0 0.0 0.0 0.0 0.0 0.0" Properties=species:S:1:pos:R:3:Z:I:1 pbc="F F F"
C      -0.42500336      -0.87479671       0.48706972        6 
C      -0.72161645       0.71626117       0.60932407        6 
C       0.84484302      -1.16130908      -0.32563760        6 
C       0.29656053       1.57190864      -0.15353439        6 
O       1.80988195      -1.75729423       0.41270247        8 
O       1.00794403      -0.89408487      -1.49089003        8 
O       1.43788755       1.70912047       0.56770757        8 
O       0.18889914       2.00734701      -1.26952392        8 
C       2.52042065       2.37536400      -0.10666261        6 
C       3.04017632      -2.03538687      -0.27593010        6 
C      -1.72988036      -1.37581630      -0.27454193        6 
C      -1.78146896      -0.78959211      -1.67305112        6 
C      -2.04545391       0.51330892      -1.55333579        6 
C      -2.15666642       0.81928183      -0.06810556        6 
C      -2.80344479      -0.49871814       0.41072238        6 
C      -0.33752785      -1.57909023       1.85475177        6 
C      -0.78947947       1.23630417       2.05819405        6 
H       2.77991850       1.83827674      -1.02036882        1 
H       3.49016905      -1.11101842      -0.64186850        1 
H      -2.05947941       1.25223154      -2.33907715        1 
H       3.34932167       2.36839420       0.59810915        1 
H       2.24183784       3.39888013      -0.36151685        1 
H       3.68419816      -2.50859633       0.46242615        1 
H       2.86530543      -2.70444506      -1.11975849        1 
H      -2.66189837       1.74929447       0.19268298        1 
H      -1.84543596      -2.45806130      -0.20108105        1 
H      -1.60010558       0.76651454       2.61422000        1 
H       0.14302434       1.07529929       2.59696465        1 
H      -0.98121807       2.31293447       2.04623857        1 
H      -0.18101900      -2.64877683       1.70474038        1 
H       0.49386210      -1.20983663       2.45308813        1 
H      -1.25422383      -1.45714181       2.42934291        1 
H      -3.79065513      -0.65139232      -0.02612349        1 
H      -2.87111492      -0.61324324       1.49303860        1 
H      -1.53412859      -1.32656253      -2.57708102        1 
