35
Lattice="0.0 0.0 0.0 0.0 0.0 0.0 0.0 0.0 0.0" Properties=species:S:1:pos:R:3:Z:I:1 pbc="F F F"
C      -0.16883228      -1.01632754       0.32476620        6 
C      -0.88905067       0.38396201       0.74747422        6 
C       1.24537566      -0.97169494      -0.29729536        6 
C      -0.14300992       1.72454732       0.60334285        6 
O       2.16149822      -1.56109075       0.51542792        8 
O       1.56928358      -0.46605937      -1.33990210        8 
O       0.68465835       1.78755060      -0.43977764        8 
O      -0.34459820       2.67272300       1.33079221        8 
C       1.33984356       3.04239286      -0.68020888        6 
C       3.51441060      -1.56387610       0.03249948        6 
C      -1.16349741      -1.50740124      -0.83885361        6 
C      -1.07523601      -0.54971813      -2.01518498        6 
C      -1.67440841       0.58799087      -1.65452589        6 
C      -2.15689500       0.40953517      -0.22837851        6 
C      -2.53209475      -1.08547219      -0.26421757        6 
C      -0.18194787      -2.06620751       1.45612562        6 
C      -1.39096598       0.35993627       2.20848406        6 
H       0.60571203       3.82025954      -0.89744181        1 
H       3.86478348      -0.54351525      -0.13131380        1 
H      -1.70799677       1.51486282      -2.21061054        1 
H       1.98043922       2.86450614      -1.54114981        1 
H       1.92921621       3.34044479       0.18817321        1 
H       4.09861489      -2.05057375       0.81088769        1 
H       3.58651235      -2.11893024      -0.90447656        1 
H      -2.91195767       1.11227748       0.12308717        1 
H      -1.02212343      -2.56401117      -1.06947715        1 
H      -2.07944728      -0.46178337       2.38978224        1 
H      -0.56384981       0.27637481       2.91593448        1 
H      -1.90842092       1.29277080       2.42453000        1 
H       0.24967254      -2.99962683       1.09333070        1 
H       0.40607204      -1.74951429       2.31639094        1 
H      -1.19297856      -2.28255357       1.79317677        1 
H      -3.34571753      -1.28331935      -0.96313402        1 
H      -2.77808847      -1.52084371       0.70293771        1 
H      -0.52765987      -0.74040412      -2.92559447        1 
