35
Lattice="0.0 0.0 0.0 0.0 0.0 0.0 0.0 0.0 0.0" Properties=species:S:1:pos:R:3:Z:I:1 pbc="F F F"
C       1.17363598       0.02191559      -0.52074999        6 
C      -0.09615957       0.99691335      -0.48237756        6 
C       0.93868731      -1.46946043      -0.25113225        6 
C      -1.44093364       0.28731434      -0.59476633        6 
O      -0.21237465      -1.74681876       0.38138008        8 
O       1.76989944      -2.31714679      -0.48500678        8 
O      -2.30971199       0.66924404       0.36378622        8 
O      -1.73614071      -0.46408744      -1.49274913        8 
C      -3.62637736       0.09578147       0.28186474        6 
C      -0.47157935      -3.13141852       0.66537176        6 
C       1.99753390       0.55636028       0.75290443        6 
C       1.22466062       0.17104756       2.00525436        6 
C       0.11923306       0.92060468       2.03740438        6 
C       0.15226657       1.83935665       0.82768363        6 
C       1.67974333       2.06350221       0.71200528        6 
C       2.02026659       0.12515474      -1.79647281        6 
C      -0.16774966       1.96713447      -1.69646485        6 
H      -4.10512067       0.36773431      -0.66017277        1 
H       0.28850003      -3.53515665       1.33597873        1 
H      -0.71458012       0.83610360       2.71954424        1 
H      -4.17627721       0.50903276       1.12483150        1 
H      -3.57198425      -0.99153487       0.35388827        1 
H      -1.45078681      -3.15025554       1.13902272        1 
H      -0.48254524      -3.71032173      -0.25893966        1 
H      -0.48350195       2.72159535       0.87956872        1 
H       3.04066886       0.24625135       0.71192663        1 
H       0.70181450       2.61779167      -1.76053129        1 
H      -0.26384423       1.41886687      -2.63294220        1 
H      -1.04992744       2.60469178      -1.58886789        1 
H       2.88213980      -0.53620470      -1.71523875        1 
H       1.44666329      -0.18322499      -2.67305252        1 
H       2.37922466       1.14071852      -1.96031058        1 
H       2.08547607       2.58970021       1.57693398        1 
H       2.00462513       2.56803961      -0.19766910        1 
H       1.47780837      -0.65538919       2.65651399        1 
