35
Lattice="0.0 0.0 0.0 0.0 0.0 0.0 0.0 0.0 0.0" Properties=species:S:1:pos:R:3:Z:I:1 pbc="F F F"
C       0.72340422      -0.48142484      -0.82725624        6 
C       0.56019757       1.00878846      -0.19906785        6 
C      -0.55017453      -1.32986437      -0.70970480        6 
C      -0.77480655       1.21677525       0.52224928        6 
O      -0.86534389      -1.66369096       0.55320405        8 
O      -1.22793828      -1.66656863      -1.65325827        8 
O      -1.75563262       1.49968231      -0.36867025        8 
O      -0.99289106       1.09672045       1.70101809        8 
C      -3.08108371       1.64300213       0.16841763        6 
C      -2.08068586      -2.41116955       0.72861238        6 
C       1.97113082      -1.02709471      -0.00774827        6 
C       1.63453783      -1.16146355       1.46765378        6 
C       1.51509989       0.06967059       1.96824619        6 
C       1.76828838       1.04734648       0.83064270        6 
C       2.83746895       0.25324453       0.04822355        6 
C       1.06659946      -0.47155218      -2.33039335        6 
C       0.71860939       2.14380811      -1.23147845        6 
H      -3.39143089       0.72464477       0.66910992        1 
H      -2.01748381      -3.37265883       0.21670931        1 
H       1.18941499       0.34678674       2.95875335        1 
H      -3.72076038       1.84592597      -0.68771318        1 
H      -3.11893241       2.46783399       0.88167786        1 
H      -2.18000702      -2.54950450       1.80280678        1 
H      -2.93119998      -1.85435149       0.33199874        1 
H       2.01726186       2.06709516       1.12479469        1 
H       2.40941844      -1.90587735      -0.48262476        1 
H       1.71533313       2.14680107      -1.67052133        1 
H      -0.01478271       2.07495301      -2.03330146        1 
H       0.57445601       3.10705749      -0.73427084        1 
H       1.19504080      -1.49915245      -2.67626686        1 
H       0.26378510      -0.03622587      -2.92351450        1 
H       1.98904276       0.06718894      -2.53808141        1 
H       3.74773632       0.10542903       0.62987143        1 
H       3.09746952       0.67274714      -0.92292955        1 
H       1.42543716      -2.09582226       1.96815951        1 
