35
Lattice="0.0 0.0 0.0 0.0 0.0 0.0 0.0 0.0 0.0" Properties=species:S:1:pos:R:3:Z:I:1 pbc="F F F"
C      -0.60364641       0.50773565       0.69972715        6 
C       1.00039142       0.35967865       0.72091432        6 
C      -1.46240199      -0.75558918       0.55103347        6 
C       1.72520045      -0.87620881       0.13976237        6 
O      -2.77836176      -0.39325967       0.52467741        8 
O      -1.12767561      -1.89761194       0.38629812        8 
O       1.07148225      -1.53052098      -0.82037494        8 
O       2.88832672      -1.10816186       0.39692539        8 
C       1.78218401      -2.58709484      -1.48126334        6 
C      -3.71913430      -1.45798238       0.31633826        6 
C      -0.85909060       1.60136400      -0.41018662        6 
C      -0.39051636       1.07343090      -1.75291164        6 
C       0.94484942       1.04288227      -1.72800530        6 
C       1.38742877       1.51638054      -0.35057933        6 
C       0.30104196       2.57569410      -0.09458183        6 
C      -1.12325384       1.08316293       2.06452628        6 
C       1.65401192       0.65606641       2.07908405        6 
H       2.67007401      -2.19966947      -1.98537748        1 
H      -3.65835790      -2.19201246       1.12183694        1 
H       1.60394401       0.63748803      -2.48365005        1 
H       1.07750607      -2.99677350      -2.20190751        1 
H       2.08397360      -3.35281080      -0.76538443        1 
H      -4.69791085      -0.98229210       0.30845230        1 
H      -3.52976769      -1.95892641      -0.63491751        1 
H       2.42978158       1.81518078      -0.25258394        1 
H      -1.87375627       1.99260201      -0.37345354        1 
H       1.43492909       1.66349499       2.42788975        1 
H       1.32195077      -0.05186140       2.84238632        1 
H       2.73308556       0.55278789       1.98543704        1 
H      -2.17960912       1.32770696       1.96965513        1 
H      -1.01956165       0.34808589       2.86611272        1 
H      -0.59331703       1.98017915       2.36753420        1 
H       0.35033423       3.39227066      -0.81594642        1 
H       0.29718079       2.98820338       0.91295121        1 
H      -1.04117966       0.69965278      -2.53258910        1 
