35
Lattice="0.0 0.0 0.0 0.0 0.0 0.0 0.0 0.0 0.0" Properties=species:S:1:pos:R:3:Z:I:1 pbc="F F F"
C      -0.57485009      -0.88952955       0.57894717        6 
C      -0.99293152       0.67185700       0.39576749        6 
C       0.93988297      -1.16092381       0.69431861        6 
C       0.16822808       1.68034572       0.34895462        6 
O       1.57252619      -1.32538573      -0.47884102        8 
O       1.49230742      -1.37573279       1.75003699        8 
O       1.12536947       1.36619848      -0.54042235        8 
O       0.22139639       2.68327906       1.02251148        8 
C       2.22850355       2.28267282      -0.63927367        6 
C       2.97523232      -1.61928098      -0.40502553        6 
C      -1.22714227      -1.52620614      -0.73603795        6 
C      -0.54762335      -0.99486250      -1.98822231        6 
C      -0.89388109       0.28647156      -2.12431981        6 
C      -1.81429557       0.63076497      -0.96966939        6 
C      -2.54516759      -0.72348738      -0.81539894        6 
C      -1.19602825      -1.54910503       1.82559078        6 
C      -1.92599043       1.18046826       1.51331444        6 
H       1.88114122       3.26736782      -0.95621753        1 
H       3.14925778      -2.54436601       0.14687713        1 
H      -0.51636612       0.99437533      -2.84876062        1 
H       2.89217407       1.85194486      -1.38630557        1 
H       2.73527970       2.37487930       0.32242895        1 
H       3.30305009      -1.72021853      -1.43783420        1 
H       3.50942362      -0.80527434       0.08840381        1 
H      -2.43174449       1.52083889      -1.09235091        1 
H      -1.30814178      -2.61092145      -0.66157313        1 
H      -2.83646369       0.58948486       1.58261691        1 
H      -1.43290377       1.17396127       2.48535220        1 
H      -2.20819159       2.21250663       1.30430888        1 
H      -0.90499500      -2.60121094       1.85827633        1 
H      -0.83972882      -1.08807717       2.74527444        1 
H      -2.28285185      -1.50435304       1.80723729        1 
H      -3.12501447      -0.97450088      -1.70438548        1 
H      -3.18479020      -0.80417798       0.06221435        1 
H       0.16104666      -1.54839194      -2.58471684        1 
