35
Lattice="0.0 0.0 0.0 0.0 0.0 0.0 0.0 0.0 0.0" Properties=species:S:1:pos:R:3:Z:I:1 pbc="F F F"
C      -0.02309055      -0.84841511       0.57395860        6 
C      -1.02700922       0.39694972       0.48295554        6 
C       1.27905981      -0.66465823      -0.21796393        6 
C      -0.47055917       1.70270015      -0.07597119        6 
O       2.33388920      -1.25348471       0.39162720        8 
O       1.38124897      -0.13361226      -1.29681572        8 
O       0.79359059       1.93100324       0.33615819        8 
O      -1.15133927       2.55435181      -0.59650448        8 
C       1.38670515       3.16721753      -0.09361388        6 
C       3.57854078      -1.19633752      -0.32544870        6 
C      -0.88049647      -1.95562480      -0.23024623        6 
C      -0.97382074      -1.53547183      -1.68864945        6 
C      -1.77761979      -0.47033746      -1.75149744        6 
C      -2.24457990      -0.17082728      -0.34052589        6 
C      -2.31283700      -1.60703402       0.22690071        6 
C       0.25979571      -1.33869037       2.00022730        6 
C      -1.54685974       0.86611693       1.87564438        6 
H       1.46840543       3.18122956      -1.18157050        1 
H       3.87508510      -0.15999859      -0.49363506        1 
H      -1.97426724       0.15673468      -2.60981365        1 
H       2.37491289       3.18872121       0.36104718        1 
H       0.78941583       4.01771929       0.23768365        1 
H       4.30157684      -1.70487092       0.30888263        1 
H       3.48876528      -1.70133377      -1.28862603        1 
H      -3.13178815       0.45328771      -0.25230160        1 
H      -0.51913081      -2.96634320      -0.03890134        1 
H      -2.08185655       0.07471685       2.39704776        1 
H      -0.73236642       1.21051231       2.51425360        1 
H      -2.23902803       1.69681951       1.72658590        1 
H       0.85067772      -2.25316606       1.97159045        1 
H       0.82429387      -0.60030327       2.57200239        1 
H      -0.66238478      -1.55386479       2.53694829        1 
H      -3.06290054      -2.21427363      -0.28140858        1 
H      -2.47189435      -1.67033209       1.30367850        1 
H      -0.38312483      -1.95401994      -2.49131560        1 
