35
Lattice="0.0 0.0 0.0 0.0 0.0 0.0 0.0 0.0 0.0" Properties=species:S:1:pos:R:3:Z:I:1 pbc="F F F"
C       0.69025231      -0.38183982      -0.78219615        6 
C       0.39598265       1.06532535      -0.16052616        6 
C      -0.18894325      -1.60793948      -0.44642305        6 
C      -1.03744003       1.52289289       0.16526063        6 
O      -1.02953082      -1.48239070       0.58708516        8 
O       0.01172405      -2.68182752      -0.97437303        8 
O      -1.99167178       0.67989096      -0.26536186        8 
O      -1.30365479       2.66699089       0.46323355        8 
C      -3.33900739       1.18038824      -0.24654510        6 
C      -1.71439020      -2.67834765       0.98931519        6 
C       2.03992707      -0.75185910       0.05166801        6 
C       1.61049808      -1.03497811       1.48753418        6 
C       1.23799750       0.12707080       2.03091335        6 
C       1.45773430       1.20963748       0.98986218        6 
C       2.70035915       0.62151984       0.26851681        6 
C       0.94466526      -0.41506101      -2.29498294        6 
C       0.72415466       2.17580299      -1.23288303        6 
H      -3.64191763       1.43124303       0.77100133        1 
H      -1.00354652      -3.44002701       1.31548172        1 
H       0.77275265       0.28209186       2.99538901        1 
H      -3.95097787       0.37035669      -0.63852971        1 
H      -3.42680146       2.06932346      -0.87361647        1 
H      -2.35937027      -2.37763053       1.81244372        1 
H      -2.30518211      -3.07742027       0.16340490        1 
H       1.52015283       2.23043708       1.36255414        1 
H       2.61289417      -1.53203540      -0.44607786        1 
H       1.69635091       2.04280984      -1.69457360        1 
H      -0.02290262       2.18504001      -2.02945331        1 
H       0.69964300       3.14810266      -0.74453950        1 
H       1.12580385      -1.44378944      -2.60128072        1 
H       0.07898698      -0.04664731      -2.85101713        1 
H       1.81133918       0.17981565      -2.57766927        1 
H       3.56100161       0.55139172       0.93475863        1 
H       2.99871931       1.13861412      -0.64046055        1 
H       1.50413943      -2.02327003       1.91516634        1 
