35
Lattice="0.0 0.0 0.0 0.0 0.0 0.0 0.0 0.0 0.0" Properties=species:S:1:pos:R:3:Z:I:1 pbc="F F F"
C       0.68263416      -0.66209585       0.54444722        6 
C      -0.92631773      -0.68250049       0.50571893        6 
C       1.30358716       0.71568447       0.30632648        6 
C      -1.59990143       0.70487532       0.45500115        6 
O       2.62135262       0.59437976       0.02215180        8 
O       0.75423341       1.78660316       0.37203908        8 
O      -1.74264369       1.18767156      -0.79262161        8 
O      -2.06858687       1.25302575       1.42338214        8 
C      -2.28866823       2.51232531      -0.89136106        6 
C       3.33088126       1.82459593      -0.20864370        6 
C       1.06667091      -1.64237291      -0.64448602        6 
C       0.73048432      -0.91956762      -1.93730764        6 
C      -0.60118274      -0.86518557      -2.02104654        6 
C      -1.17458812      -1.56511306      -0.79489258        6 
C      -0.09392788      -2.65410168      -0.59863252        6 
C       1.27695382      -1.16385801       1.87985873        6 
C      -1.56732691      -1.38454058       1.72216954        6 
H      -3.29719113       2.54648837      -0.47583820        1 
H       3.26953646       2.47129120       0.66776360        1 
H      -1.19170326      -0.34949132      -2.76269512        1 
H      -2.30492762       2.74028850      -1.95555004        1 
H      -1.64948805       3.21544162      -0.35602049        1 
H       4.36111389       1.53316260      -0.40081047        1 
H       2.91187621       2.34826447      -1.06953836        1 
H      -2.21022459      -1.89479341      -0.87834120        1 
H       2.07957037      -2.02943357      -0.55327837        1 
H      -1.20248534      -2.40068855       1.85396814        1 
H      -1.39351043      -0.82502522       2.63959189        1 
H      -2.64876357      -1.43379856       1.57632583        1 
H       2.36593430      -1.15867551       1.81880036        1 
H       0.97730395      -0.52849809       2.71627604        1 
H       0.95776317      -2.18288414       2.09638150        1 
H      -0.05610936      -3.35472864      -1.43458720        1 
H      -0.16955067      -3.21644879       0.33193827        1 
H       1.45370558      -0.44858804      -2.58921297        1 
