35
Lattice="0.0 0.0 0.0 0.0 0.0 0.0 0.0 0.0 0.0" Properties=species:S:1:pos:R:3:Z:I:1 pbc="F F F"
C      -0.58804740       0.34670613       0.71553495        6 
C       0.91936643       0.70956763       0.33526308        6 
C      -1.17011831      -0.86845300      -0.02729936        6 
C       1.77338735      -0.39605018      -0.27662440        6 
O      -2.52019654      -0.88243274       0.13334949        8 
O      -0.59786733      -1.73459498      -0.63704325        8 
O       1.76714478      -1.50325541       0.49104034        8 
O       2.55711936      -0.22370204      -1.18047999        8 
C       2.50062389      -2.62968667      -0.01175720        6 
C      -3.21967046      -1.96277876      -0.50596479        6 
C      -1.35793608       1.60720965       0.07272801        6 
C      -1.30258610       1.38431379      -1.43624901        6 
C      -0.03438055       1.56596635      -1.81832201        6 
C       0.76224432       1.96385726      -0.58725261        6 
C      -0.32527345       2.73893804       0.19723843        6 
C      -0.87045613       0.18470801       2.21446827        6 
C       1.77879614       1.10855677       1.57700289        6 
H       2.04794804      -2.97600087      -0.94262483        1 
H      -2.87326698      -2.92497294      -0.12534168        1 
H       0.39691813       1.37912906      -2.79175326        1 
H       2.41710445      -3.39770929       0.75455931        1 
H       3.54567808      -2.36944774      -0.18530188        1 
H      -4.26985129      -1.81124982      -0.26473633        1 
H      -3.06657268      -1.93128313      -1.58631956        1 
H       1.70995181       2.46291725      -0.77818922        1 
H      -2.34452901       1.75777013       0.50606581        1 
H       1.36479290       1.96041847       2.11347890        1 
H       1.88315430       0.27834915       2.27446584        1 
H       2.77852046       1.38696901       1.23424426        1 
H      -1.93368170       0.00331789       2.37291306        1 
H      -0.31047394      -0.65630358       2.62982056        1 
H      -0.59319132       1.08456873       2.76386690        1 
H      -0.64543497       3.64101136      -0.32597278        1 
H      -0.05779952       2.99546223       1.22168604        1 
H      -2.12475395       1.01792857      -2.03690161        1 
