35
Lattice="0.0 0.0 0.0 0.0 0.0 0.0 0.0 0.0 0.0" Properties=species:S:1:pos:R:3:Z:I:1 pbc="F F F"
C       1.07070941      -0.60552790      -0.36574926        6 
C       0.49250352       0.89100612      -0.60741809        6 
C      -0.01447375      -1.68569271      -0.25687769        6 
C      -1.03941924       0.93303800      -0.68474546        6 
O      -0.96967354      -1.39906921       0.65048485        8 
O      -0.04290271      -2.69348852      -0.92190615        8 
O      -1.64634885       1.38869711       0.42462154        8 
O      -1.65016502       0.71560196      -1.70692796        8 
C      -3.08029820       1.45791999       0.36930231        6 
C      -2.06058770      -2.33316451       0.73310463        6 
C       1.90915588      -0.41504981       0.97226100        6 
C       0.98763441      -0.09280938       2.13348484        6 
C       0.51825225       1.14108549       1.94000224        6 
C       1.11277360       1.66207034       0.63909685        6 
C       2.50329396       0.99138383       0.72262087        6 
C       2.01318775      -1.08325756      -1.48708999        6 
C       0.97144457       1.54496450      -1.91831619        6 
H      -3.40249533       2.16418487      -0.39758664        1 
H      -1.69751090      -3.32677005       0.99910624        1 
H      -0.22908544       1.65562704       2.52393488        1 
H      -3.39284334       1.79313256       1.35615145        1 
H      -3.49973609       0.47573656       0.14588841        1 
H      -2.71528642      -1.94364747       1.51008368        1 
H      -2.58317038      -2.38602559      -0.22346636        1 
H       1.08535487       2.74325703       0.50301212        1 
H       2.61008963      -1.23577897       1.12448104        1 
H       2.05517422       1.64065458      -1.94946190        1 
H       0.63877002       0.98250156      -2.78905138        1 
H       0.54570578       2.54903069      -1.99511143        1 
H       2.40013733      -2.07170938      -1.23707481        1 
H       1.48921447      -1.17584262      -2.43815296        1 
H       2.85810286      -0.41147722      -1.61898029        1 
H       3.07890761       1.34734528       1.57731556        1 
H       3.11022671       1.07915315      -0.17814932        1 
H       0.69324900      -0.79347080       2.90229519        1 
