35
Lattice="0.0 0.0 0.0 0.0 0.0 0.0 0.0 0.0 0.0" Properties=species:S:1:pos:R:3:Z:I:1 pbc="F F F"
C       0.76521002       0.41607841      -0.60666160        6 
C      -0.81787179       0.49618815      -0.41281312        6 
C       1.48862558      -0.78953299       0.02891717        6 
C      -1.59700146      -0.81289835      -0.30222210        6 
O       2.83617598      -0.60840542      -0.10586789        8 
O       1.03827887      -1.75859054       0.57363388        8 
O      -2.81120803      -0.57606768       0.26609375        8 
O      -1.24947057      -1.90596817      -0.65666092        8 
C      -3.68905597      -1.71081056       0.35870698        6 
C       3.65679758      -1.65082052       0.44395228        6 
C       1.21842962       1.63508069       0.36141657        6 
C       1.01997385       1.11583825       1.78350131        6 
C      -0.29772529       1.02941879       1.99263319        6 
C      -0.99667823       1.54345341       0.74480199        6 
C       0.03202882       2.60994306       0.28771218        6 
C       1.25525556       0.59996744      -2.04959214        6 
C      -1.51909461       1.07494004      -1.69704987        6 
H      -3.92168427      -2.09753997      -0.63552116        1 
H       3.46584390      -2.59759961      -0.06481822        1 
H      -0.80090918       0.58820139       2.84256634        1 
H      -4.59071007      -1.34227168       0.84387788        1 
H      -3.23009105      -2.50432619       0.95020827        1 
H       4.68372182      -1.33010913       0.28040307        1 
H       3.45799448      -1.77730938       1.50971946        1 
H      -2.03122087       1.85582145       0.86673352        1 
H       2.20945116       2.00740996       0.11175663        1 
H      -1.09185699       2.01616693      -2.03081981        1 
H      -1.45941804       0.36803849      -2.52687247        1 
H      -2.57306655       1.24538785      -1.47317087        1 
H       2.34312842       0.56770132      -2.07850387        1 
H       0.87277034      -0.19285196      -2.69732715        1 
H       0.93735489       1.55880163      -2.45871253        1 
H       0.12765851       3.41999144       1.01236763        1 
H      -0.14872319       3.03717065      -0.69722401        1 
H       1.80965754       0.75138878       2.42704048        1 
