35
Lattice="0.0 0.0 0.0 0.0 0.0 0.0 0.0 0.0 0.0" Properties=species:S:1:pos:R:3:Z:I:1 pbc="F F F"
C      -0.74088503       0.90698802       0.31928497        6 
C       0.67848880       0.26068619       0.73632630        6 
C      -1.67302632      -0.05474892      -0.42719414        6 
C       0.91286233      -1.15232563       0.19642270        6 
O      -2.40706439      -0.79886695       0.42137120        8 
O      -1.81449748      -0.09756011      -1.62608289        8 
O       2.22148489      -1.36436199      -0.07016579        8 
O       0.09323036      -2.03517044       0.12555279        8 
C       2.56717711      -2.69620704      -0.49233003        6 
C      -3.20941239      -1.82914262      -0.17664118        6 
C      -0.28144250       2.09865430      -0.60752164        6 
C       0.42868264       1.54000652      -1.83118940        6 
C       1.61451899       1.07274453      -1.43237693        6 
C       1.69888314       1.28193126       0.07337905        6 
C       0.93693424       2.61535409       0.19165176        6 
C      -1.54043132       1.46421472       1.51898207        6 
C       0.89721806       0.13682362       2.25671502        6 
H       2.30768380      -3.42191026       0.28019298        1 
H      -2.56452265      -2.54714807      -0.68500583        1 
H       2.34228940       0.53295687      -2.02126096        1 
H       3.64235901      -2.67778092      -0.65685641        1 
H       2.04087276      -2.95116786      -1.41340329        1 
H      -3.73242834      -2.30538153       0.65032483        1 
H      -3.91926227      -1.40336328      -0.88731889        1 
H       2.69293944       1.22456281       0.51227541        1 
H      -1.09094666       2.80060192      -0.80673445        1 
H       0.85119488       1.10946534       2.74686613        1 
H       0.15171896      -0.51691094       2.71369932        1 
H       1.88595262      -0.28667675       2.44917616        1 
H      -2.47120125       1.90742971       1.15523858        1 
H      -1.80325493       0.67979168       2.22516613        1 
H      -0.99318966       2.24093192       2.05060375        1 
H       1.45375606       3.42700841      -0.32258341        1 
H       0.71877859       2.92427691       1.21465978        1 
H      -0.01465060       1.46337302      -2.81227596        1 
