35
Lattice="0.0 0.0 0.0 0.0 0.0 0.0 0.0 0.0 0.0" Properties=species:S:1:pos:R:3:Z:I:1 pbc="F F F"
C      -0.99859742      -0.55130520      -0.37163769        6 
C       0.56214440      -0.46335339      -0.68904497        6 
C      -1.64568377       0.69147417       0.23567607        6 
C       1.29255280       0.64177690       0.08525513        6 
O      -1.35395291       1.79585737      -0.48498177        8 
O      -2.51857621       0.66269049       1.07004470        8 
O       2.60021202       0.67950705      -0.26843595        8 
O       0.84004445       1.36067365       0.94008734        8 
C       3.41843345       1.61443906       0.45564715        6 
C      -1.95609663       3.01748924      -0.03234250        6 
C      -1.10675013      -1.83115504       0.53570785        6 
C      -0.32537827      -1.59297721       1.81699958        6 
C       0.97467232      -1.62144826       1.50912849        6 
C       1.07856363      -1.82916897       0.00280756        6 
C      -0.12302459      -2.76677225      -0.20909171        6 
C      -1.87235945      -0.76612115      -1.64476387        6 
C       0.92729991      -0.41306441      -2.17772996        6 
H       3.03426933       2.62898530       0.34133180        1 
H      -1.59673707       3.25946851       0.96924209        1 
H       1.80736103      -1.39315158       2.16124914        1 
H       4.41160989       1.52816985       0.02006377        1 
H       3.44076034       1.35934487       1.51664460        1 
H      -1.64151997       3.77919888      -0.74301655        1 
H      -3.04352590       2.92933347      -0.01781151        1 
H       2.04862891      -2.14040950      -0.38127631        1 
H      -2.13416744      -2.16823084       0.66001987        1 
H       0.51648266      -1.26886135      -2.71351757        1 
H       0.54606653       0.49651551      -2.64819115        1 
H       2.00967950      -0.42702764      -2.29803025        1 
H      -2.91997871      -0.84175288      -1.34416466        1 
H      -1.77707041       0.07001590      -2.33609193        1 
H      -1.61362136      -1.68159580      -2.17286690        1 
H       0.00793117      -3.72098326       0.30303645        1 
H      -0.36831959      -2.95450203      -1.25472288        1 
H      -0.77450545      -1.34243190       2.76754603        1 
