35
Lattice="0.0 0.0 0.0 0.0 0.0 0.0 0.0 0.0 0.0" Properties=species:S:1:pos:R:3:Z:I:1 pbc="F F F"
C       0.79525674       0.60101143      -0.47490354        6 
C      -0.79475038       0.36680768      -0.54795178        6 
C       1.61367881      -0.45006133       0.30447599        6 
C      -1.29712707      -1.04194921      -0.22625128        6 
O       2.75854368      -0.77826282      -0.34674459        8 
O       1.32703025      -0.93888387       1.36540336        8 
O      -2.65672451      -1.03660717      -0.16984607        8 
O      -0.65327242      -2.03109601       0.00198838        8 
C      -3.27707456      -2.29564874       0.14065773        6 
C       3.56543019      -1.77893282       0.29731038        6 
C       0.82220641       1.91848322       0.46549149        6 
C       0.35808171       1.52782337       1.86249162        6 
C      -0.95250270       1.27978233       1.79652068        6 
C      -1.38646345       1.51347383       0.36275314        6 
C      -0.43344142       2.67016465      -0.01709387        6 
C       1.45531798       0.91761238      -1.82454822        6 
C      -1.33619640       0.57174206      -2.00299118        6 
H      -3.03924635      -3.03901562      -0.62241928        1 
H       2.99480343      -2.70063452       0.42082144        1 
H      -1.58245120       0.86830221       2.57351815        1 
H      -4.34655306      -2.09557712       0.15762545        1 
H      -2.93820502      -2.66109644       1.11133273        1 
H       4.41529284      -1.93611488      -0.36395880        1 
H       3.89957035      -1.43292935       1.27695981        1 
H      -2.45187311       1.65925355       0.19451710        1 
H       1.77741243       2.44031700       0.40295097        1 
H      -1.10043810       1.55643490      -2.39829802        1 
H      -0.92548624      -0.17251112      -2.68895375        1 
H      -2.42005598       0.46283731      -1.99852365        1 
H       2.50550546       1.16288101      -1.67294687        1 
H       1.41389353       0.06491850      -2.50397509        1 
H       0.98271352       1.76869482      -2.31267540        1 
H      -0.62755569       3.56738885       0.57206747        1 
H      -0.42645883       2.93473747      -1.07409926        1 
H       1.01065286       1.36004070       2.70652773        1 
