35
Lattice="0.0 0.0 0.0 0.0 0.0 0.0 0.0 0.0 0.0" Properties=species:S:1:pos:R:3:Z:I:1 pbc="F F F"
C       1.09189455      -0.22218239      -0.49617975        6 
C      -0.11380954       0.83052313      -0.60058241        6 
C       0.73856089      -1.54215576       0.18586191        6 
C      -1.36949859       0.38918228       0.15116576        6 
O      -0.21216648      -2.20240659      -0.51546050        8 
O       1.29454567      -2.00694065       1.14863300        8 
O      -2.49033680       0.93998379      -0.36954644        8 
O      -1.39619231      -0.29750128       1.14360261        8 
C      -3.71652207       0.64786045       0.32333177        6 
C      -0.68482443      -3.42848494       0.06629097        6 
C       2.16734149       0.57963214       0.33501882        6 
C       1.63137260       0.80425801       1.73954074        6 
C       0.64964307       1.70547400       1.65577148        6 
C       0.50166386       2.08300132       0.19109502        6 
C       1.97771406       1.99535711      -0.25283532        6 
C       1.68897611      -0.63642069      -1.86350381        6 
C      -0.46473642       1.23756026      -2.04201964        6 
H      -3.91139564      -0.42566036       0.31870898        1 
H      -1.15997169      -3.22149015       1.02650860        1 
H      -0.02415673       2.01216681       2.44410888        1 
H      -4.49166381       1.17896927      -0.22523237        1 
H      -3.66660585       0.99710549       1.35574472        1 
H      -1.40859966      -3.82793898      -0.64167412        1 
H       0.13835010      -4.12972523       0.20980058        1 
H      -0.04177500       3.00222484      -0.02721045        1 
H       3.15820045       0.13260423       0.26974806        1 
H       0.41082704       1.60264680      -2.57746753        1 
H      -0.88015491       0.39895852      -2.60472809        1 
H      -1.21019949       2.03197765      -2.03722686        1 
H       2.48449656      -1.36780925      -1.69737796        1 
H       0.93935032      -1.09926346      -2.50409647        1 
H       2.12566286       0.21058847      -2.39143056        1 
H       2.59959509       2.73861486       0.24714605        1 
H       2.12867600       2.06835164      -1.33057732        1 
H       1.92305983       0.22750846       2.60411027        1 
