35
Lattice="0.0 0.0 0.0 0.0 0.0 0.0 0.0 0.0 0.0" Properties=species:S:1:pos:R:3:Z:I:1 pbc="F F F"
C       0.65858345      -0.57013891       0.56935296        6 
C      -0.94982472      -0.38694255       0.50408425        6 
C       1.48440594       0.52370306      -0.12274376        6 
C      -1.47597459       0.82993021      -0.28384594        6 
O       2.70178636       0.67176162       0.46226764        8 
O       1.18286681       1.13972322      -1.11188984        8 
O      -1.82741698       1.83691109       0.55810918        8 
O      -1.52158121       0.95869369      -1.47751118        8 
C      -2.25621082       3.05357494      -0.07705281        6 
C       3.59143864       1.59792345      -0.18475765        6 
C       0.87175960      -1.95039490      -0.20469699        6 
C       0.50881746      -1.76127363      -1.66367235        6 
C      -0.81717804      -1.61600651      -1.72632718        6 
C      -1.35675781      -1.70764740      -0.30729330        6 
C      -0.36621055      -2.73697701       0.27519656        6 
C       1.16131378      -0.73013896       2.02234677        6 
C      -1.64695563      -0.41535624       1.87916633        6 
H      -1.47770017       3.42914920      -0.74252387        1 
H       3.17573017       2.60678113      -0.16357132        1 
H      -1.40623802      -1.36684494      -2.59507346        1 
H      -2.44505409       3.75324254       0.73470358        1 
H      -3.16688857       2.88327817      -0.65440449        1 
H       4.51794328       1.55374635       0.38384130        1 
H       3.76009258       1.30632858      -1.22258790        1 
H      -2.42063167      -1.92813881      -0.21291502        1 
H       1.85347766      -2.37426560       0.00543807        1 
H      -1.49397841      -1.36399648       2.39104131        1 
H      -1.31021626       0.38854126       2.53166533        1 
H      -2.72228798      -0.29082394       1.73764170        1 
H       2.21775528      -0.99183095       2.02100926        1 
H       1.05466947       0.19547353       2.59146345        1 
H       0.62303228      -1.51436910       2.54950808        1 
H      -0.44680286      -3.70637551      -0.21820163        1 
H      -0.43031640      -2.87929613       1.35363516        1 
H       1.21880755      -1.63741819      -2.46950006        1 
