35
Lattice="0.0 0.0 0.0 0.0 0.0 0.0 0.0 0.0 0.0" Properties=species:S:1:pos:R:3:Z:I:1 pbc="F F F"
C      -0.14774503      -0.98302630       0.56659233        6 
C      -1.19329946       0.23902382       0.44325035        6 
C       1.30786154      -0.51919095       0.63693316        6 
C      -0.55996327       1.62660341       0.26853098        6 
O       2.08438571      -1.06407964      -0.31755698        8 
O       1.74317741       0.18122592       1.52075396        8 
O       0.46698480       1.63567515      -0.60386434        8 
O      -0.96088011       2.63038720       0.80721835        8 
C       1.14054408       2.89270172      -0.78004861        6 
C       3.47200275      -0.68765682      -0.28918176        6 
C      -0.52403067      -1.87144088      -0.68952699        6 
C      -0.19198854      -1.11734786      -1.96567046        6 
C      -1.06504222      -0.11306800      -2.07760050        6 
C      -1.99292159      -0.17972264      -0.87720845        6 
C      -2.06143856      -1.71271751      -0.69370027        6 
C      -0.31297330      -1.82173559       1.85725162        6 
C      -2.17002998       0.34795501       1.62358393        6 
H       0.44298628       3.65838211      -1.12227598        1 
H       3.93558991      -0.99881945       0.64801154        1 
H      -1.06038788       0.68169298      -2.81077454        1 
H       1.90447415       2.70668724      -1.53242232        1 
H       1.59407715       3.20939736       0.16031591        1 
H       3.92899453      -1.20042347      -1.13302362        1 
H       3.57015866       0.39352594      -0.39662690        1 
H      -2.93582671       0.36030955      -0.96524030        1 
H      -0.12640702      -2.88289822      -0.61546133        1 
H      -2.72989606      -0.57430166       1.77043409        1 
H      -1.64870032       0.58947183       2.55060706        1 
H      -2.87974462       1.15301192       1.43456111        1 
H       0.42403811      -2.63024060       1.85523204        1 
H      -0.14265229      -1.21603457       2.74670328        1 
H      -1.29927506      -2.27781989       1.92450575        1 
H      -2.52437339      -2.20664144      -1.54913800        1 
H      -2.55899857      -2.03903960       0.21933167        1 
H       0.66866184      -1.31138125      -2.58838568        1 
