35
Lattice="0.0 0.0 0.0 0.0 0.0 0.0 0.0 0.0 0.0" Properties=species:S:1:pos:R:3:Z:I:1 pbc="F F F"
C       0.87837545      -0.54229143      -0.57421538        6 
C       0.26048943       0.94211935      -0.45845287        6 
C       0.05597265      -1.72844359      -0.07129532        6 
C      -1.06096956       1.04827897       0.32460129        6 
O      -1.26692457      -1.49207858      -0.03142600        8 
O       0.52122519      -2.83634080       0.06552890        8 
O      -2.08567461       1.44275779      -0.46597720        8 
O      -1.21363205       0.82559879       1.50001870        8 
C      -3.37166936       1.51470941       0.16846724        6 
C      -2.10939146      -2.61033935       0.29834457        6 
C       2.25183587      -0.42682142       0.19402683        6 
C       1.94743597      -0.22789125       1.66719678        6 
C       1.43878868       0.99968676       1.80368549        6 
C       1.40364018       1.64097816       0.42154836        6 
C       2.67419251       1.00677724      -0.18813426        6 
C       1.14517082      -0.95861181      -2.05083496        6 
C       0.12849247       1.67865892      -1.80340097        6 
H      -3.66140207       0.53335397       0.54817257        1 
H      -1.84687825      -3.00651270       1.27955668        1 
H       1.02096427       1.43921624       2.69641062        1 
H      -4.06048825       1.84421531      -0.60691152        1 
H      -3.35629209       2.22516134       0.99647359        1 
H      -3.12328729      -2.21609715       0.30458930        1 
H      -2.00640902      -3.39802532      -0.44982178        1 
H       1.32358990       2.72829449       0.40047128        1 
H       2.92860272      -1.24217874      -0.05460076        1 
H       1.08281785       1.73647075      -2.32263541        1 
H      -0.59467044       1.19943028      -2.46233866        1 
H      -0.21810103       2.69876351      -1.63011450        1 
H       1.60218909      -1.94848878      -2.05899831        1 
H       0.21921464      -1.00407065      -2.62845261        1 
H       1.82205361      -0.26810066      -2.55039814        1 
H       3.57962699       1.31774922       0.33360852        1 
H       2.80223783       1.17553701      -1.25794119        1 
H       2.02164847      -0.99994662       2.42084364        1 
