35
Lattice="0.0 0.0 0.0 0.0 0.0 0.0 0.0 0.0 0.0" Properties=species:S:1:pos:R:3:Z:I:1 pbc="F F F"
C       0.35155206      -0.88965599       0.48235816        6 
C      -1.13387588      -0.28209344       0.50803966        6 
C       1.47100506       0.14577677       0.51477538        6 
C      -1.27228251       1.24169652       0.32999155        6 
O       2.57593923      -0.31277342      -0.11376828        8 
O       1.42489691       1.21838598       1.06444264        8 
O      -0.54695764       1.73884313      -0.68628317        8 
O      -2.05434919       1.91696947       0.95790571        8 
C      -0.62219827       3.15871177      -0.88385631        6 
C       3.72139573       0.55782212      -0.08839885        6 
C       0.33063362      -1.84185787      -0.77545339        6 
C       0.18499372      -0.99770949      -2.02783388        6 
C      -1.05822832      -0.50960187      -2.03683309        6 
C      -1.75885640      -1.01077019      -0.78304304        6 
C      -1.10512147      -2.40608267      -0.67294972        6 
C       0.68219293      -1.73808411       1.74705125        6 
C      -1.95107087      -0.65449240       1.75416501        6 
H      -1.65504582       3.47397829      -1.03783062        1 
H       4.03138269       0.75195385       0.93952616        1 
H      -1.47656713       0.20405834      -2.73237645        1 
H      -0.02245803       3.35835515      -1.76991797        1 
H      -0.20909767       3.67761660      -0.01750872        1 
H       4.50105058       0.02753286      -0.63100624        1 
H       3.48831501       1.50493686      -0.57738135        1 
H      -2.84756946      -0.96081891      -0.78690035        1 
H       1.15242269      -2.55561761      -0.77281770        1 
H      -1.99993394      -1.73174969       1.90297323        1 
H      -1.53429616      -0.19800361       2.65302071        1 
H      -2.96822533      -0.27893284       1.64607804        1 
H       1.69272806      -2.14184437       1.65160514        1 
H       0.64147363      -1.13374746       2.65454663        1 
H      -0.00122403      -2.57644044       1.86203610        1 
H      -1.35475972      -3.04463611      -1.52149166        1 
H      -1.32571179      -2.94064735       0.25114189        1 
H       0.99085496      -0.76132008      -2.70875380        1 
