35
Lattice="0.0 0.0 0.0 0.0 0.0 0.0 0.0 0.0 0.0" Properties=species:S:1:pos:R:3:Z:I:1 pbc="F F F"
C       0.78430279       0.69950091      -0.42260752        6 
C      -0.77748617       0.37833842      -0.60002075        6 
C       1.57206128      -0.37761591       0.34766738        6 
C      -1.16907395      -1.06651009      -0.31986783        6 
O       2.72217535      -0.71466502      -0.27920390        8 
O       1.24692549      -0.87318269       1.39704492        8 
O      -2.48056173      -1.15465623       0.00009539        8 
O      -0.44714196      -2.02845669      -0.39763559        8 
C      -2.98465069      -2.48377133       0.22538943        6 
C       3.48228946      -1.76083446       0.34968121        6 
C       0.69240856       1.98236172       0.54313360        6 
C       0.15543551       1.54313787       1.89992024        6 
C      -1.13483890       1.23670669       1.74156064        6 
C      -1.48360220       1.47655893       0.28551602        6 
C      -0.56611982       2.68544114      -0.00985943        6 
C       1.50703037       1.08104962      -1.72271384        6 
C      -1.26058552       0.54219157      -2.07530253        6 
H      -2.88640025      -3.08807967      -0.67832858        1 
H       2.87986441      -2.66725953       0.42425287        1 
H      -1.79500830       0.78008889       2.46606347        1 
H      -4.03299820      -2.35591392       0.48666827        1 
H      -2.43962251      -2.96440072       1.03885716        1 
H       4.34397995      -1.92096476      -0.29526173        1 
H       3.80057648      -1.45864702       1.34882659        1 
H      -2.54184912       1.57740784       0.05251383        1 
H       1.62356833       2.54900196       0.55043504        1 
H      -1.09628032       1.55101224      -2.44835805        1 
H      -0.75179771      -0.15642399      -2.74183215        1 
H      -2.33208493       0.33789226      -2.12407714        1 
H       2.53460703       1.37080761      -1.50353727        1 
H       1.54804431       0.24617187      -2.42357270        1 
H       1.02306709       1.92218812      -2.21814073        1 
H      -0.84024523       3.56096151       0.57983334        1 
H      -0.50274367       2.97024853      -1.06040771        1 
H       0.75808908       1.38878755       2.78295235        1 
