35
Lattice="0.0 0.0 0.0 0.0 0.0 0.0 0.0 0.0 0.0" Properties=species:S:1:pos:R:3:Z:I:1 pbc="F F F"
C      -0.44467164      -0.91771420       0.45131239        6 
C      -0.73133162       0.66527298       0.64068891        6 
C       0.84537087      -1.19386418      -0.33223441        6 
C       0.25439677       1.59528813      -0.07080219        6 
O       1.88225250      -1.48897191       0.47922182        8 
O       0.94894140      -1.20139384      -1.53575059        8 
O       1.52556782       1.37506531       0.32906399        8 
O      -0.04032256       2.46461835      -0.85266491        8 
C       2.53513458       2.17596981      -0.31070035        6 
C       3.14034922      -1.71855823      -0.17196931        6 
C      -1.73273601      -1.36473249      -0.35405035        6 
C      -1.76353522      -0.68276504      -1.71289219        6 
C      -2.03490414       0.60892643      -1.51123041        6 
C      -2.16869007       0.81358004      -0.01075784        6 
C      -2.81644437      -0.53262835       0.37370969        6 
C      -0.38450967      -1.69692382       1.78277061        6 
C      -0.74314855       1.12822258       2.11145530        6 
H       2.52856035       1.99716183      -1.38704272        1 
H       3.43708381      -0.84067313      -0.74822249        1 
H      -2.03851904       1.40313500      -2.24215384        1 
H       3.47846480       1.85610801       0.12709713        1 
H       2.36325862       3.23598949      -0.11933459        1 
H       3.85132660      -1.90845482       0.62961880        1 
H       3.07731637      -2.57854067      -0.84066112        1 
H      -2.67218411       1.72593766       0.30570774        1 
H      -1.85280941      -2.44875377      -0.36097663        1 
H      -1.51516733       0.61490719       2.68406838        1 
H       0.22015917       0.95826160       2.59290376        1 
H      -0.95908943       2.19960399       2.15171927        1 
H      -0.19839629      -2.75346622       1.57572011        1 
H       0.41768316      -1.34528358       2.42852404        1 
H      -1.32205977      -1.63131213       2.33243444        1 
H      -3.79942279      -0.65790759      -0.08183157        1 
H      -2.89757000      -0.71387424       1.44630297        1 
H      -1.50944304      -1.16283773      -2.64589012        1 
