35
Lattice="0.0 0.0 0.0 0.0 0.0 0.0 0.0 0.0 0.0" Properties=species:S:1:pos:R:3:Z:I:1 pbc="F F F"
C       0.89607148      -0.21397062      -0.79901681        6 
C       0.04936596       1.06495712      -0.25240168        6 
C       0.21330800      -1.59555885      -0.75313337        6 
C      -1.32076953       0.74620996       0.37361629        6 
O      -0.05616437      -2.04533784       0.47534486        8 
O       0.03946943      -2.27992293      -1.73917272        8 
O      -2.32541925       1.43187944      -0.23095749        8 
O      -1.54091179      -0.01565431       1.28058727        8 
C      -3.64586323       1.19099510       0.28209362        6 
C      -0.69459298      -3.32883526       0.56092573        6 
C       2.17881563      -0.16536318       0.15827927        6 
C       1.77899017      -0.44418157       1.59585531        6 
C       1.08658202       0.60925201       2.03445036        6 
C       1.02004107       1.61209313       0.89534649        6 
C       2.40067572       1.35990246       0.25326064        6 
C       1.35753374      -0.04388013      -2.26148723        6 
C      -0.12241206       2.16539023      -1.32029046        6 
H      -3.91886414       0.14149320       0.15930491        1 
H      -0.04569301      -4.10947114       0.15963022        1 
H       0.55882307       0.69989542       2.97246436        1 
H      -4.30449459       1.82758936      -0.30535591        1 
H      -3.70113160       1.45168140       1.34016778        1 
H      -0.88119485      -3.48509783       1.62101018        1 
H      -1.63294891      -3.32305909       0.00459862        1 
H       0.77414939       2.63831676       1.16966028        1 
H       2.99519738      -0.76771825      -0.24094930        1 
H       0.83984967       2.51895500      -1.68388335        1 
H      -0.70530063       1.81872092      -2.17331416        1 
H      -0.64918809       3.01769116      -0.89126678        1 
H       1.96304675      -0.90362318      -2.54874811        1 
H       0.51228432      -0.00710756      -2.94834188        1 
H       1.95727399       0.85268766      -2.39972083        1 
H       3.21646224       1.61083126       0.93167518        1 
H       2.56492868       1.85999182      -0.70014694        1 
H       1.93434617      -1.38188824       2.10849765        1 
