35
Lattice="0.0 0.0 0.0 0.0 0.0 0.0 0.0 0.0 0.0" Properties=species:S:1:pos:R:3:Z:I:1 pbc="F F F"
C       0.68165215      -0.60436515      -0.73512343        6 
C       0.63265848       0.93352731      -0.27592578        6 
C      -0.57244895      -1.45064968      -0.46964203        6 
C      -0.69927727       1.49271191       0.21239922        6 
O      -1.05938724      -1.34267375       0.78217487        8 
O      -1.04097466      -2.22304590      -1.27337180        8 
O      -1.75105333       0.94320559      -0.43252903        8 
O      -0.80255631       2.48743272       0.89044815        8 
C      -3.03877764       1.52847149      -0.17809311        6 
C      -2.25876524      -2.08369209       1.05200686        6 
C       1.87920519      -1.13411152       0.20024348        6 
C       1.45163159      -1.06931926       1.66007122        6 
C       1.38770458       0.21859216       2.00841775        6 
C       1.78416389       1.03458640       0.79261717        6 
C       2.82725202       0.08392682       0.16366744        6 
C       1.04680223      -0.82083293      -2.21225831        6 
C       0.94422121       1.91715911      -1.44490001        6 
H      -3.30982637       1.40734227       0.87217966        1 
H      -2.10075715      -3.15185470       0.89642793        1 
H       1.01173472       0.63352596       2.93335269        1 
H      -3.73344608       0.98668647      -0.81661621        1 
H      -3.03366579       2.59069167      -0.42699139        1 
H      -2.49845115      -1.87773719       2.09324224        1 
H      -3.06522669      -1.74509319       0.39838926        1 
H       2.08286808       2.06391065       0.98079421        1 
H       2.26954216      -2.09097558      -0.14685417        1 
H       1.93092283       1.73974684      -1.86790738        1 
H       0.20765675       1.83403109      -2.24558584        1 
H       0.92047093       2.93860280      -1.06202299        1 
H       1.13571362      -1.88826827      -2.41240462        1 
H       0.27202169      -0.43363205      -2.87563241        1 
H       1.99137288      -0.34520638      -2.46781878        1 
H       3.69686898      -0.05412994       0.80728738        1 
H       3.16539991       0.36801967      -0.83308240        1 
H       1.14176359      -1.92206714       2.24732640        1 
