35
Lattice="0.0 0.0 0.0 0.0 0.0 0.0 0.0 0.0 0.0" Properties=species:S:1:pos:R:3:Z:I:1 pbc="F F F"
C      -0.78308005      -0.74819513      -0.40849290        6 
C       0.75131707      -0.31774072      -0.63250052        6 
C      -1.64174540       0.25237770       0.39335995        6 
C       1.09990620       1.10397984      -0.19273613        6 
O      -2.56828463       0.84790375      -0.39064405        8 
O      -1.52723040       0.51289721       1.56375296        8 
O       2.44392489       1.27731695      -0.19713648        8 
O       0.33831647       1.97491679       0.14248819        8 
C       2.91075288       2.57377645       0.21577240        6 
C      -3.34578481       1.87846755       0.24077495        6 
C      -0.56888719      -2.04597425       0.50734381        6 
C       0.02793100      -1.62635518       1.84741103        6 
C       1.29518043      -1.26343458       1.62916160        6 
C       1.56082373      -1.43043215       0.14536114        6 
C       0.68457601      -2.66776412      -0.14530582        6 
C      -1.52803982      -1.15662161      -1.69301869        6 
C       1.15727471      -0.34823461      -2.13389666        6 
H       2.53789576       3.34720977      -0.45784452        1 
H      -2.68910117       2.67095981       0.60210035        1 
H       1.98263603      -0.81863570       2.33581793        1 
H       3.99635507       2.51882458       0.17104746        1 
H       2.57725395       2.79295035       1.23123271        1 
H      -4.01441862       2.25129917      -0.53281896        1 
H      -3.91631649       1.47227560       1.07755900        1 
H       2.60407722      -1.46708901      -0.16262787        1 
H      -1.46766868      -2.66142450       0.55459922        1 
H       0.98770954      -1.32768770      -2.57616697        1 
H       0.59783180       0.38728251      -2.71605494        1 
H       2.21844187      -0.11462338      -2.22346016        1 
H      -2.54390246      -1.46686162      -1.44229444        1 
H      -1.61004653      -0.33406114      -2.40283034        1 
H      -1.04304989      -1.99550379      -2.19131503        1 
H       1.03300853      -3.55037212       0.39228238        1 
H       0.57574418      -2.91400924      -1.20191374        1 
H      -0.52674970      -1.54756422       2.76951171        1 
