35
Lattice="0.0 0.0 0.0 0.0 0.0 0.0 0.0 0.0 0.0" Properties=species:S:1:pos:R:3:Z:I:1 pbc="F F F"
C      -0.04801577      -1.01200490       0.53304340        6 
C      -1.18047533       0.12895334       0.48846416        6 
C       1.37401943      -0.45824412       0.63137714        6 
C      -0.70802463       1.57287090       0.27775563        6 
O       2.17687878      -0.88695795      -0.36125649        8 
O       1.76734151       0.21140604       1.55694764        8 
O       0.41768216       1.67432539      -0.45119783        8 
O      -1.33082012       2.54151871       0.64583569        8 
C       0.89104187       3.00473996      -0.71480289        6 
C       3.53914503      -0.43032914      -0.30835249        6 
C      -0.37644238      -1.86139327      -0.76067787        6 
C      -0.14899861      -1.01018512      -1.99872667        6 
C      -1.11669305      -0.09126949      -2.03982706        6 
C      -1.99828377      -0.30538941      -0.82118978        6 
C      -1.92379225      -1.84238909      -0.71639976        6 
C      -0.13906297      -1.93073428       1.77970775        6 
C      -2.11378266       0.13697613       1.70836350        6 
H       0.13406195       3.58127608      -1.24849400        1 
H       4.02572924      -0.77864450       0.60388619        1 
H      -1.20728311       0.73810040      -2.72845652        1 
H       1.77991276       2.87786680      -1.32941868        1 
H       1.13823354       3.50938572       0.21999774        1 
H       4.02149815      -0.85382897      -1.18685791        1 
H       3.57267480       0.65968103      -0.33807517        1 
H      -2.98552155       0.15469029      -0.85022225        1 
H       0.11380680      -2.83393769      -0.75542888        1 
H      -2.59887340      -0.82784372       1.84806418        1 
H      -1.57006849       0.38559050       2.62152880        1 
H      -2.88458656       0.89431982       1.57114122        1 
H       0.65001238      -2.68663786       1.72613413        1 
H       0.00588253      -1.36390343       2.69856003        1 
H      -1.09075697      -2.45586574       1.83619935        1 
H      -2.36676498      -2.33410234      -1.58378434        1 
H      -2.36462024      -2.25526004       0.19123438        1 
H       0.71126572      -1.08863452      -2.64694268        1 
