35
Lattice="0.0 0.0 0.0 0.0 0.0 0.0 0.0 0.0 0.0" Properties=species:S:1:pos:R:3:Z:I:1 pbc="F F F"
C       0.91712774       0.65434461      -0.55879048        6 
C      -0.69246356       0.66538603      -0.43825733        6 
C       1.61979406      -0.71797535      -0.46981657        6 
C      -1.35383394      -0.70426390      -0.27081223        6 
O       1.63230488      -1.26335465       0.75605653        8 
O       2.25323272      -1.18887565      -1.38721582        8 
O      -2.70234288      -0.56479568      -0.20709605        8 
O      -0.82236209      -1.77660666      -0.13226622        8 
C      -3.45303546      -1.77294838       0.00683780        6 
C       2.16718243      -2.59215773       0.84580912        6 
C       1.29190121       1.57544838       0.70074403        6 
C       0.88235600       0.88994720       1.99708204        6 
C      -0.45153216       0.90178271       2.06092077        6 
C      -0.95403632       1.60140571       0.81220470        6 
C       0.17217856       2.63877290       0.61900525        6 
C       1.45376927       1.31025106      -1.84446896        6 
C      -1.36839036       1.29342498      -1.68884028        6 
H      -3.29034580      -2.47377086      -0.81341120        1 
H       3.20806209      -2.61767605       0.51989047        1 
H      -1.07895606       0.41433660       2.79529121        1 
H      -4.49517290      -1.46248349       0.04387904        1 
H      -3.15881364      -2.24607858       0.94494229        1 
H       2.08444920      -2.86672039       1.89564848        1 
H       1.57307474      -3.26777782       0.22843724        1 
H      -1.98026706       1.96456668       0.83747216        1 
H       2.32245272       1.92705902       0.65161229        1 
H      -1.00810399       2.30194946      -1.87842217        1 
H      -1.18243379       0.69547788      -2.58384807        1 
H      -2.44485992       1.34302281      -1.53410282        1 
H       2.54365407       1.33073371      -1.80804084        1 
H       1.17694835       0.74151774      -2.73194227        1 
H       1.10117292       2.33282182      -1.95988817        1 
H       0.21821068       3.34930600       1.44538510        1 
H       0.13104000       3.18854892      -0.32087478        1 
H       1.56513924       0.40109768       2.67488236        1 
