35
Lattice="0.0 0.0 0.0 0.0 0.0 0.0 0.0 0.0 0.0" Properties=species:S:1:pos:R:3:Z:I:1 pbc="F F F"
C       0.77218039      -0.60011892       0.59376372        6 
C      -0.84787397      -0.64774274       0.50217954        6 
C       1.41677766       0.78423291       0.43144806        6 
C      -1.54936088       0.71287492       0.38663302        6 
O       2.42081957       0.77018108      -0.47948306        8 
O       1.17307960       1.75296563       1.10284291        8 
O      -2.16919445       0.88409955      -0.80505067        8 
O      -1.61205889       1.52732943       1.27030463        8 
C      -2.89093935       2.11815665      -0.96397613        6 
C       3.15539570       1.99844528      -0.61964469        6 
C       1.17407883      -1.59714146      -0.57170851        6 
C       0.80585733      -0.95091876      -1.89914250        6 
C      -0.52577864      -0.95454628      -1.98842668        6 
C      -1.06768063      -1.61160253      -0.72757435        6 
C       0.04987740      -2.64929663      -0.47759402        6 
C       1.33242591      -1.09489021       1.94609788        6 
C      -1.51097635      -1.26433861       1.75967109        6 
H      -3.67918767       2.19935537      -0.21392132        1 
H       3.61210156       2.28340257       0.32948094        1 
H      -1.13654597      -0.50464226      -2.75659283        1 
H      -3.31634521       2.07762588      -1.96487154        1 
H      -2.21580156       2.96937444      -0.86565596        1 
H       3.91873368       1.79501590      -1.36788279        1 
H       2.49594271       2.80155977      -0.95261965        1 
H      -2.09168022      -1.97965254      -0.78587307        1 
H       2.20054125      -1.94873220      -0.48242225        1 
H      -1.15934730      -2.27506349       1.95817925        1 
H      -1.33279634      -0.64516298       2.63764920        1 
H      -2.59234098      -1.31612258       1.60400372        1 
H       2.42504745      -1.05767184       1.92085339        1 
H       0.99283878      -0.46464642       2.76858467        1 
H       1.04413993      -2.12599394       2.14776739        1 
H       0.11190040      -3.38947073      -1.27686914        1 
H      -0.01009825      -3.16740009       0.48038194        1 
H       1.51224807      -0.49677281      -2.57784376        1 
