35
Lattice="0.0 0.0 0.0 0.0 0.0 0.0 0.0 0.0 0.0" Properties=species:S:1:pos:R:3:Z:I:1 pbc="F F F"
C       0.96202134      -0.49431080      -0.49589755        6 
C       0.13908937       0.88376464      -0.52799400        6 
C       0.24658128      -1.71209058       0.07612399        6 
C      -1.16782419       0.84095712       0.27546667        6 
O      -1.04600075      -1.75842663      -0.31379107        8 
O       0.80878932      -2.65036692       0.58770605        8 
O      -2.19007128       1.43895029      -0.37872498        8 
O      -1.30182490       0.38323029       1.38432913        8 
C      -3.44916573       1.46046863       0.31383432        6 
C      -1.78779170      -2.92880499       0.06684408        6 
C       2.27182577      -0.11554035       0.29145680        6 
C       1.89753067       0.20534609       1.72605489        6 
C       1.24168163       1.36896298       1.71743009        6 
C       1.15799313       1.83799220       0.27204855        6 
C       2.51285850       1.31199528      -0.24813597        6 
C       1.34995946      -1.00824506      -1.91356465        6 
C      -0.10117510       1.44277051      -1.93829211        6 
H      -3.78471546       0.44379364       0.52459153        1 
H      -1.83488695      -3.00749728       1.15378334        1 
H       0.73526835       1.83800853       2.54885848        1 
H      -4.14154865       1.96091316      -0.36014890        1 
H      -3.36276726       2.00898587       1.25310701        1 
H      -2.78400587      -2.78889802      -0.34805479        1 
H      -1.32336692      -3.82705440      -0.34317671        1 
H       0.93077399       2.89283627       0.11637730        1 
H       3.06290415      -0.85000445       0.15263130        1 
H       0.83337160       1.53883126      -2.48799383        1 
H      -0.77379112       0.80459462      -2.51309944        1 
H      -0.55896712       2.42976259      -1.87602815        1 
H       1.89125648      -1.95108091      -1.81165651        1 
H       0.47016641      -1.18771631      -2.53287938        1 
H       2.00066446      -0.30794699      -2.43415280        1 
H       3.35750218       1.79932051       0.24017039        1 
H       2.63905661       1.37927335      -1.32916531        1 
H       2.03230076      -0.46937212       2.55972234        1 
