35
Lattice="0.0 0.0 0.0 0.0 0.0 0.0 0.0 0.0 0.0" Properties=species:S:1:pos:R:3:Z:I:1 pbc="F F F"
C       0.73183243      -0.48042676      -0.76886566        6 
C       0.50797820       1.01203360      -0.24268312        6 
C      -0.34329936      -1.52718729      -0.44940156        6 
C      -0.89036739       1.36113977       0.24641367        6 
O      -1.07846664      -1.25844835       0.64464816        8 
O      -0.44521392      -2.57232187      -1.05071249        8 
O      -1.83151215       0.94307418      -0.63216135        8 
O      -1.13423319       2.11304678       1.15878841        8 
C      -3.19043406       1.28145696      -0.31730398        6 
C      -2.03649838      -2.25673189       1.03133394        6 
C       2.01107159      -0.90783138       0.11348648        6 
C       1.57571257      -1.00721648       1.56885770        6 
C       1.33038627       0.23273443       2.00161440        6 
C       1.62271945       1.18145312       0.85266289        6 
C       2.78686412       0.42241930       0.17070563        6 
C       1.05440943      -0.59874456      -2.26478959        6 
C       0.72185532       2.08818208      -1.34936914        6 
H      -3.48186946       0.82974265       0.63305617        1 
H      -1.54086496      -3.20744532       1.23366655        1 
H       0.89061014       0.52959932       2.94332459        1 
H      -3.78793651       0.87426149      -1.13044327        1 
H      -3.31615402       2.36334041      -0.25192974        1 
H      -2.50836278      -1.86948821       1.93177611        1 
H      -2.77455554      -2.40147562       0.24044467        1 
H       1.78446705       2.22292370       1.12401688        1 
H       2.51334501      -1.77891503      -0.30571622        1 
H       1.73667331       2.07278263      -1.74281217        1 
H       0.02852674       1.95131410      -2.17846672        1 
H       0.54713303       3.07738232      -0.91973384        1 
H       1.24996834      -1.64123881      -2.51245335        1 
H       0.21495096      -0.26500281      -2.87844130        1 
H       1.93093372      -0.01057903      -2.53443463        1 
H       3.66731290       0.35643504       0.81092235        1 
H       3.08111894       0.81231661      -0.80361366        1 
H       1.37738162      -1.93503143       2.08912673        1 
