35
Lattice="0.0 0.0 0.0 0.0 0.0 0.0 0.0 0.0 0.0" Properties=species:S:1:pos:R:3:Z:I:1 pbc="F F F"
C      -0.01196917       1.12294019       0.21131005        6 
C       0.85476040      -0.09493388       0.84968931        6 
C      -1.28947054       0.60138864      -0.45868436        6 
C       0.12377113      -1.43827911       0.70710841        6 
O      -2.40880682       1.03723273       0.15771834        8 
O      -1.33297629      -0.13754403      -1.41399834        8 
O       0.47659131      -2.15314914      -0.36827558        8 
O      -0.64322566      -1.85954297       1.54508490        8 
C      -0.25377647      -3.37035913      -0.59547468        6 
C      -3.65107947       0.52814289      -0.35890988        6 
C       1.00883776       1.71464756      -0.85279340        6 
C       1.26258495       0.71096558      -1.96241996        6 
C       1.98369135      -0.28386961      -1.44388530        6 
C       2.21022526       0.02968831       0.02618148        6 
C       2.33724567       1.56806716      -0.07209778        6 
C      -0.36876097       2.21771608       1.23521135        6 
C       1.13735471       0.06042813       2.35477109        6 
H      -0.16297200      -4.04147895       0.25949103        1 
H      -3.67765692      -0.55924207      -0.27316919        1 
H       2.27039484      -1.20498802      -1.92733489        1 
H       0.19248343      -3.81219201      -1.48393614        1 
H      -1.30549902      -3.14189357      -0.77327566        1 
H      -4.42562401       0.97969361       0.25716310        1 
H      -3.77682783       0.81019346      -1.40528028        1 
H       3.02630599      -0.50937584       0.50816486        1 
H       0.72183843       2.71802515      -1.16964101        1 
H       1.67934764       0.97823812       2.57506165        1 
H       0.21682242       0.04439904       2.93572046        1 
H       1.74939356      -0.77990385       2.69236635        1 
H      -0.93770876       3.00903217       0.74405035        1 
H      -0.98211864       1.83233832       2.04865780        1 
H       0.52549886       2.66762870       1.66299698        1 
H       3.19616611       1.86907149      -0.67242472        1 
H       2.36728577       2.09190575       0.88312723        1 
H       0.83265490       0.76161265      -2.95213544        1 
