35
Lattice="0.0 0.0 0.0 0.0 0.0 0.0 0.0 0.0 0.0" Properties=species:S:1:pos:R:3:Z:I:1 pbc="F F F"
C       0.74728091      -0.52185263      -0.77165114        6 
C       0.55410327       1.00387453      -0.26780324        6 
C      -0.47058315      -1.43964270      -0.60535634        6 
C      -0.79333675       1.27718758       0.40582705        6 
O      -1.01610457      -1.39445615       0.62200695        8 
O      -0.90645115      -2.15444439      -1.47833861        8 
O      -1.77162945       1.37728230      -0.52826657        8 
O      -1.02069665       1.34080046       1.58644071        8 
C      -3.10984130       1.52917789      -0.02625631        6 
C      -2.17207882      -2.22092012       0.83662843        6 
C       1.97971569      -0.99555114       0.11932721        6 
C       1.58527969      -1.02298855       1.58575057        6 
C       1.44157321       0.24198475       1.98741491        6 
C       1.73389444       1.13433778       0.79021572        6 
C       2.83317816       0.29310822       0.10785435        6 
C       1.13354430      -0.61872338      -2.26176024        6 
C       0.73008563       2.06134023      -1.37786512        6 
H      -3.37702205       0.67880696       0.60341833        1 
H      -1.91247898      -3.27611188       0.73597257        1 
H       1.07467094       0.59037463       2.94015519        1 
H      -3.74808113       1.56985321      -0.90638997        1 
H      -3.20059264       2.44662974       0.55720994        1 
H      -2.49853189      -1.99905663       1.85018211        1 
H      -2.95305122      -1.97896981       0.11378819        1 
H       1.96544137       2.17512168       1.01629216        1 
H       2.43312410      -1.90405067      -0.27795704        1 
H       1.73892056       2.04818727      -1.78835346        1 
H       0.02029741       1.92009980      -2.19093193        1 
H       0.55903188       3.05635171      -0.95761691        1 
H       1.31686693      -1.66179144      -2.52056727        1 
H       0.33000926      -0.26598568      -2.90894200        1 
H       2.03396128      -0.05141198      -2.48824941        1 
H       3.72395804       0.19848833       0.72950843        1 
H       3.12472559       0.63840972      -0.88390640        1 
H       1.35599720      -1.91906831       2.14546276        1 
