35
Lattice="0.0 0.0 0.0 0.0 0.0 0.0 0.0 0.0 0.0" Properties=species:S:1:pos:R:3:Z:I:1 pbc="F F F"
C       0.96858840      -0.47922384      -0.54003539        6 
C       0.10513638       0.89185067      -0.51371662        6 
C       0.32315994      -1.81887954      -0.14422107        6 
C      -1.23338607       0.89110538       0.25294159        6 
O      -0.97814445      -1.75486021       0.15925488        8 
O       0.89340062      -2.87700883      -0.29550722        8 
O      -2.24203763       1.39318329      -0.50547978        8 
O      -1.42376945       0.51084560       1.37955001        8 
C      -3.53492134       1.42755374       0.11929133        6 
C      -1.64556150      -3.00536266       0.40243235        6 
C       2.23395744      -0.12921295       0.33677644        6 
C       1.79316725       0.09186577       1.77063121        6 
C       1.11810798       1.24408769       1.80580156        6 
C       1.09089087       1.80308176       0.38894176        6 
C       2.47628587       1.33280117      -0.09680834        6 
C       1.45824666      -0.80615950      -1.98721511        6 
C      -0.07102648       1.54917575      -1.89301095        6 
H      -3.84854862       0.42092694       0.40148386        1 
H      -1.17653669      -3.53260248       1.23386428        1 
H       0.57939866       1.66044255       2.64387477        1 
H      -4.20730031       1.84285880      -0.62887493        1 
H      -3.51689078       2.05672253       1.01076233        1 
H      -2.67072455      -2.73821695       0.64967604        1 
H      -1.61135073      -3.63558447      -0.48788758        1 
H       0.85686010       2.86372293       0.29236839        1 
H       3.03948045      -0.84529890       0.18156851        1 
H       0.88773227       1.73603143      -2.37094794        1 
H      -0.67582552       0.93665684      -2.56322905        1 
H      -0.57742354       2.50760064      -1.78291668        1 
H       2.07956434      -1.69892882      -1.94982602        1 
H       0.61972122      -1.01115382      -2.65670100        1 
H       2.04469849       0.00089379      -2.41929699        1 
H       3.28694321       1.79615950       0.46651564        1 
H       2.65573867       1.47192477      -1.16198766        1 
H       1.91421899      -0.62461608       2.57206951        1 
