35
Lattice="0.0 0.0 0.0 0.0 0.0 0.0 0.0 0.0 0.0" Properties=species:S:1:pos:R:3:Z:I:1 pbc="F F F"
C      -0.29010854      -1.02260693       0.28044203        6 
C      -0.82317288       0.43487443       0.78288228        6 
C       1.11318924      -1.08204029      -0.35759709        6 
C       0.10990760       1.65600968       0.66581623        6 
O       2.00193698      -1.69996053       0.46338001        8 
O       1.45284454      -0.61723498      -1.41461653        8 
O       0.74871070       1.74212498      -0.50367687        8 
O       0.19694787       2.51242306       1.51869483        8 
C       1.57937368       2.89441477      -0.71305465        6 
C       3.35048875      -1.78716358      -0.02503157        6 
C      -1.36666209      -1.34898353      -0.86330602        6 
C      -1.20932088      -0.36982901      -2.01279860        6 
C      -1.65288718       0.81778351      -1.59298050        6 
C      -2.10119097       0.64901164      -0.15524830        6 
C      -2.65590383      -0.79018545      -0.22446581        6 
C      -0.38719991      -2.11325067       1.36761638        6 
C      -1.28400471       0.41602079       2.25470450        6 
H       0.97596491       3.80400226      -0.72124752        1 
H       3.75445829      -0.79160181      -0.21541020        1 
H      -1.59598887       1.76042852      -2.11874907        1 
H       2.04671094       2.73249313      -1.68186593        1 
H       2.33283874       2.97363383       0.07191780        1 
H       3.91173138      -2.28535662       0.76283256        1 
H       3.38699091      -2.36823957      -0.94809237        1 
H      -2.75770528       1.42220291       0.24380370        1 
H      -1.36013206      -2.40646411      -1.13078826        1 
H      -2.04149913      -0.34216249       2.43625934        1 
H      -0.45038485       0.24191616       2.93672370        1 
H      -1.70572291       1.38719287       2.50992741        1 
H      -0.06816090      -3.06983913       0.94988927        1 
H       0.25240008      -1.90344498       2.22329689        1 
H      -1.40775049      -2.23530136       1.72245232        1 
H      -3.50861572      -0.86204056      -0.90038939        1 
H      -2.92247671      -1.22948212       0.73578819        1 
H      -0.72077905      -0.59309497      -2.94897531        1 
