35
Lattice="0.0 0.0 0.0 0.0 0.0 0.0 0.0 0.0 0.0" Properties=species:S:1:pos:R:3:Z:I:1 pbc="F F F"
C       0.79843493      -0.65014362      -0.54361885        6 
C       0.24932570       0.87428667      -0.53287018        6 
C      -0.06645926      -1.65454599       0.23346317        6 
C      -1.06238168       1.06817968       0.23837257        6 
O      -0.98872644      -2.22080514      -0.58925179        8 
O      -0.04552224      -1.87697480       1.41419442        8 
O      -1.93019503       1.87440602      -0.42312026        8 
O      -1.32230355       0.61429982       1.32388814        8 
C      -3.17113199       2.14338519       0.25073987        6 
C      -1.93511292      -3.10026219       0.04154883        6 
C       2.19788658      -0.47080747       0.20794518        6 
C       1.95211004      -0.08395102       1.65847434        6 
C       1.49135219       1.16931427       1.66690726        6 
C       1.42833471       1.63726531       0.22571691        6 
C       2.65448819       0.89346791      -0.34790775        6 
C       1.05080124      -1.21926615      -1.95529004        6 
C       0.10389034       1.45510569      -1.95478429        6 
H      -3.72063261       1.21686578       0.42550516        1 
H      -2.48714174      -2.56942540       0.81875472        1 
H       1.10484016       1.71772474       2.51403953        1 
H      -3.72683226       2.79783804      -0.41781914        1 
H      -2.99065732       2.63499884       1.20803841        1 
H      -2.60281469      -3.42630328      -0.75372304        1 
H      -1.42542019      -3.95634824       0.48683173        1 
H       1.37229315       2.71414518       0.06473430        1 
H       2.85583402      -1.32499840       0.04488599        1 
H       1.02688974       1.36300120      -2.52332313        1 
H      -0.69176339       0.96273179      -2.51543361        1 
H      -0.14665800       2.51409665      -1.89764645        1 
H       1.39129869      -2.25378658      -1.86992072        1 
H       0.14893261      -1.21933088      -2.56447145        1 
H       1.82540619      -0.66182322      -2.48037902        1 
H       3.58579945       1.23135445       0.10733426        1 
H       2.75101849       0.93905566      -1.43261268        1 
H       2.02616728      -0.75801415       2.49721063        1 
