35
Lattice="0.0 0.0 0.0 0.0 0.0 0.0 0.0 0.0 0.0" Properties=species:S:1:pos:R:3:Z:I:1 pbc="F F F"
C       0.54164668      -0.58345482       0.64245486        6 
C      -1.04322762      -0.41954457       0.45835610        6 
C       1.36704958       0.49034987      -0.06760617        6 
C      -1.49257225       0.86396268      -0.24566744        6 
O       2.65310903       0.48209878       0.35430229        8 
O       0.99197404       1.21137560      -0.95901275        8 
O      -1.27151795       1.94363681       0.53710511        8 
O      -2.04863214       0.92383196      -1.31302118        8 
C      -1.57073884       3.21556848      -0.06063890        6 
C       3.54184823       1.37976585      -0.33461392        6 
C       0.80838568      -1.96699387      -0.12266925        6 
C       0.56663921      -1.73509434      -1.60440038        6 
C      -0.74763761      -1.56285736      -1.77147904        6 
C      -1.40465623      -1.69266135      -0.40664985        6 
C      -0.47312931      -2.74608848       0.23410075        6 
C       0.98355439      -0.69716903       2.11211000        6 
C      -1.84560310      -0.45742233       1.78119490        6 
H      -0.97363867       3.34956302      -0.96388778        1 
H       3.19269605       2.40909520      -0.24232579        1 
H      -1.26436199      -1.26713974      -2.67189423        1 
H      -1.30752158       3.95896392       0.68921094        1 
H      -2.63054827       3.28285442      -0.31181380        1 
H       4.50890481       1.25649608       0.14791879        1 
H       3.60273918       1.11829875      -1.39245730        1 
H      -2.47379230      -1.90098349      -0.41173859        1 
H       1.76739467      -2.40302972       0.15449454        1 
H      -1.74963377      -1.41484236       2.29295357        1 
H      -1.54152090       0.33439930       2.46396483        1 
H      -2.90623638      -0.31309832       1.55725214        1 
H       2.04979088      -0.91153519       2.16540958        1 
H       0.80080096       0.23224336       2.65611005        1 
H       0.45209057      -1.49849475       2.62390189        1 
H      -0.52253799      -3.70766072      -0.27885496        1 
H      -0.62462336      -2.90266115       1.30244663        1 
H       1.34325554      -1.60308124      -2.34602842        1 
