35
Lattice="0.0 0.0 0.0 0.0 0.0 0.0 0.0 0.0 0.0" Properties=species:S:1:pos:R:3:Z:I:1 pbc="F F F"
C       0.72337242      -0.66792828       0.36979819        6 
C      -0.88346948      -0.57496722       0.62412519        6 
C       1.52653066       0.63288711       0.16127963        6 
C      -1.66591624       0.76150752       0.55356632        6 
O       2.85538173       0.39151796       0.35018076        8 
O       1.14671242       1.70821420      -0.21781233        8 
O      -1.38779490       1.52448773      -0.50251165        8 
O      -2.60715310       0.99897296       1.28208877        8 
C      -2.18048909       2.70792652      -0.67217754        6 
C       3.73269929       1.49458069       0.07220858        6 
C       0.80884671      -1.54960025      -0.95266535        6 
C       0.22021107      -0.76405744      -2.10739202        6 
C      -1.10020939      -0.71051099      -1.91809150        6 
C      -1.41215238      -1.44796029      -0.62568654        6 
C      -0.33784647      -2.55322356      -0.70224120        6 
C       1.42668811      -1.44269699       1.51977570        6 
C      -1.33518151      -1.25023451       1.93312974        6 
H      -3.23001739       2.45054497      -0.82974540        1 
H       3.49537328       2.34585467       0.71215851        1 
H      -1.82177765      -0.15771433      -2.50165004        1 
H      -1.76729801       3.20226432      -1.54875087        1 
H      -2.09794199       3.35150382       0.20439539        1 
H       4.73486926       1.12592948       0.28155107        1 
H       3.64588666       1.80081014      -0.97191515        1 
H      -2.44708849      -1.75963350      -0.48591289        1 
H       1.80916022      -1.95403522      -1.10183414        1 
H      -1.02977755      -2.29230697       1.98521630        1 
H      -0.93958141      -0.73175346       2.80836275        1 
H      -2.42040788      -1.21102650       2.00163260        1 
H       2.46422175      -1.63176521       1.25576861        1 
H       1.42043899      -0.87010205       2.44990473        1 
H       0.95226297      -2.39922446       1.71580541        1 
H      -0.49380188      -3.21359747      -1.55635059        1 
H      -0.23285189      -3.15519707       0.19945768        1 
H       0.79434610      -0.25335457      -2.86840277        1 
