35
Lattice="0.0 0.0 0.0 0.0 0.0 0.0 0.0 0.0 0.0" Properties=species:S:1:pos:R:3:Z:I:1 pbc="F F F"
C      -0.87919307      -0.73626300      -0.32202520        6 
C       0.61407952      -0.31629059      -0.71665511        6 
C      -1.75671886       0.33376475       0.32533235        6 
C       1.15006586       0.93847457      -0.00203019        6 
O      -1.90675948       1.40010061      -0.48294461        8 
O      -2.43336643       0.15257105       1.31058767        8 
O       2.50723885       0.94225710      -0.05667543        8 
O       0.53338093       1.85623593       0.47442910        8 
C       3.15571323       2.08146728       0.53207450        6 
C      -2.72440431       2.46560244       0.02095101        6 
C      -0.66186582      -1.99277439       0.58755275        6 
C       0.13103040      -1.57569322       1.81624462        6 
C       1.38685665      -1.33807841       1.42274054        6 
C       1.43496286      -1.54723107      -0.08972433        6 
C       0.44520674      -2.71652369      -0.21711866        6 
C      -1.73837214      -1.15994163      -1.55522464        6 
C       0.86895530      -0.14577313      -2.22093286        6 
H       2.84044640       3.00142914       0.03721744        1 
H      -2.26069289       2.89946489       0.90837622        1 
H       2.20111059      -0.94691873       2.01740353        1 
H       4.22134857       1.91483692       0.38895171        1 
H       2.91752531       2.14922438       1.59505144        1 
H      -2.76976401       3.20150438      -0.77929711        1 
H      -3.72279047       2.10213476       0.26902283        1 
H       2.42213530      -1.66124296      -0.53256017        1 
H      -1.58743080      -2.53178594       0.78095588        1 
H       0.62690685      -1.06029727      -2.76335543        1 
H       0.26643640       0.66656384      -2.63353536        1 
H       1.92160255       0.08190344      -2.39458093        1 
H      -2.73143912      -1.45618393      -1.20666368        1 
H      -1.86405067      -0.33843979      -2.25848978        1 
H      -1.31238952      -2.00897656      -2.08739988        1 
H       0.80446161      -3.61400202       0.28830418        1 
H       0.17647968      -2.96980589      -1.24238855        1 
H      -0.29922666      -1.41854202       2.79506426        1 
