35
Lattice="0.0 0.0 0.0 0.0 0.0 0.0 0.0 0.0 0.0" Properties=species:S:1:pos:R:3:Z:I:1 pbc="F F F"
C       0.87225823      -0.71250387       0.54967199        6 
C      -0.73224575      -0.60653336       0.54291069        6 
C       1.59295376       0.64714985       0.51574670        6 
C      -1.26709822       0.78067327       0.18221285        6 
O       2.02746467       0.99181183      -0.70972647        8 
O       1.84732683       1.28708335       1.50794066        8 
O      -2.61668292       0.74279086       0.07250566        8 
O      -0.63523317       1.78835618      -0.01122338        8 
C      -3.25734466       1.97813739      -0.29046165        6 
C       2.60933988       2.30118451      -0.81807134        6 
C       1.12066184      -1.63715189      -0.71480885        6 
C       0.62645018      -0.93957914      -1.97409836        6 
C      -0.70858059      -0.93058352      -1.93784032        6 
C      -1.12562738      -1.60227690      -0.64023466        6 
C      -0.02032704      -2.66740821      -0.52879517        6 
C       1.44132621      -1.41138941       1.80582115        6 
C      -1.39421601      -1.03558945       1.86666425        6 
H      -3.03633257       2.75376656       0.44409050        1 
H       3.49625505       2.38279791      -0.18801675        1 
H      -1.38408713      -0.43921026      -2.62565991        1 
H      -4.32257924       1.75757608      -0.30717230        1 
H      -2.91852548       2.30924327      -1.27372580        1 
H       2.87196425       2.41632873      -1.86803341        1 
H       1.87720718       3.05223290      -0.51866551        1 
H      -2.16094515      -1.93169879      -0.57357986        1 
H       2.13989285      -2.02074144      -0.75423059        1 
H      -1.11904211      -2.05542115       2.13509335        1 
H      -1.10215878      -0.37839192       2.68909122        1 
H      -2.47873122      -0.99407335       1.76640136        1 
H       2.52575618      -1.49953945       1.70163747        1 
H       1.24806492      -0.82707650       2.70373125        1 
H       1.03927736      -2.41280327       1.94235081        1 
H      -0.06607568      -3.38799421      -1.34733218        1 
H      -0.00538882      -3.20694262       0.41821675        1 
H       1.26610913      -0.46579315      -2.70271019        1 
