35
Lattice="0.0 0.0 0.0 0.0 0.0 0.0 0.0 0.0 0.0" Properties=species:S:1:pos:R:3:Z:I:1 pbc="F F F"
C       0.93271182      -0.52625824      -0.50707012        6 
C       0.18329656       0.89609366      -0.50626926        6 
C       0.16888941      -1.72449339       0.04566138        6 
C      -1.12442420       0.91600938       0.30049372        6 
O      -1.14854384      -1.66079307      -0.24046472        8 
O       0.69961023      -2.73184529       0.44957800        8 
O      -2.14284258       1.47672377      -0.39139148        8 
O      -1.26369746       0.52371794       1.43332047        8 
C      -3.40545528       1.53621812       0.29169816        6 
C      -1.93449903      -2.81568525       0.09729738        6 
C       2.27293786      -0.23296485       0.26722629        6 
C       1.93227136       0.07107478       1.71291197        6 
C       1.33443629       1.26531908       1.73919508        6 
C       1.25852770       1.77319086       0.30566567        6 
C       2.57946439       1.19195966      -0.24278650        6 
C       1.27144757      -1.02941267      -1.94191039        6 
C      -0.02914811       1.49899723      -1.90350219        6 
H      -3.74200898       0.53255074       0.55668014        1 
H      -1.91652706      -2.98269892       1.17497665        1 
H       0.86352581       1.74060230       2.58736106        1 
H      -4.09430069       1.99822272      -0.41272243        1 
H      -3.32484524       2.13581438       1.19976538        1 
H      -2.94471376      -2.58620626      -0.23574392        1 
H      -1.55246375      -3.70081987      -0.41379698        1 
H       1.08732277       2.84261327       0.17965452        1 
H       3.02199074      -1.00452203       0.09912066        1 
H       0.90843878       1.56096978      -2.45243283        1 
H      -0.73494636       0.91322831      -2.49360928        1 
H      -0.43518918       2.50679575      -1.81528307        1 
H       1.77879125      -1.99264325      -1.86552307        1 
H       0.37058374      -1.16344876      -2.54256382        1 
H       1.93486896      -0.34415754      -2.46601264        1 
H       3.45275811       1.62431807       0.24691338        1 
H       2.69877473       1.27709645      -1.32331196        1 
H       2.04499993      -0.62762171       2.53013826        1 
