35
Lattice="0.0 0.0 0.0 0.0 0.0 0.0 0.0 0.0 0.0" Properties=species:S:1:pos:R:3:Z:I:1 pbc="F F F"
C       0.73492170      -0.56303999      -0.75977297        6 
C       0.59086829       0.97553199      -0.29563636        6 
C      -0.51267424      -1.42828917      -0.55501205        6 
C      -0.75198213       1.32146423       0.34486411        6 
O      -1.04120323      -1.32840792       0.67987481        8 
O      -0.98588221      -2.15109088      -1.40047340        8 
O      -1.75122444       1.22002289      -0.56396225        8 
O      -0.93767899       1.66634571       1.48427872        8 
C      -3.07750745       1.48673169      -0.07957436        6 
C      -2.22852997      -2.10012791       0.92424152        6 
C       1.95035565      -1.04740746       0.15437803        6 
C       1.54471938      -1.01481247       1.61806618        6 
C       1.43673322       0.26599413       1.97934145        6 
C       1.76663103       1.11024123       0.75827274        6 
C       2.84203441       0.21467209       0.10826424        6 
C       1.11839559      -0.72421696      -2.24307593        6 
C       0.78643422       1.99807467      -1.43703992        6 
H      -3.32450237       0.81127359       0.74100110        1 
H      -2.02252629      -3.16644124       0.81903626        1 
H       1.06381288       0.65601260       2.91384061        1 
H      -3.73689010       1.31735703      -0.92829475        1 
H      -3.15894161       2.51716442       0.26995774        1 
H      -2.52015422      -1.86324269       1.94518929        1 
H      -3.01495489      -1.82050115       0.22102922        1 
H       2.02619196       2.15013115       0.95350156        1 
H       2.37838383      -1.98147778      -0.21019056        1 
H       1.78977997       1.94327571      -1.85791125        1 
H       0.06278716       1.85189249      -2.23748185        1 
H       0.65067458       3.00897948      -1.04222301        1 
H       1.27157912      -1.78056409      -2.46562731        1 
H       0.32571446      -0.37019686      -2.90296726        1 
H       2.03499989      -0.19063175      -2.48580421        1 
H       3.72722666       0.11308185       0.73690560        1 
H       3.14934271       0.52015663      -0.89225424        1 
H       1.28116123      -1.88463519       2.20354284        1 
