35
Lattice="0.0 0.0 0.0 0.0 0.0 0.0 0.0 0.0 0.0" Properties=species:S:1:pos:R:3:Z:I:1 pbc="F F F"
C       1.01450906      -0.52092223      -0.50365346        6 
C       0.24739119       0.89067706      -0.66132250        6 
C       0.29287052      -1.71351727       0.14708749        6 
C      -1.28111209       0.85520788      -0.56211582        6 
O      -1.03664834      -1.72072087       0.00825436        8 
O       0.89627225      -2.59819469       0.71160660        8 
O      -1.75079455       1.48272098       0.53838189        8 
O      -2.00736909       0.36571442      -1.39087364        8 
C      -3.18110151       1.49169754       0.68807162        6 
C      -1.73960557      -2.85128823       0.55331255        6 
C       2.16459448      -0.12820140       0.52944813        6 
C       1.47333158       0.05797853       1.87602293        6 
C       0.75045523       1.17867494       1.79725665        6 
C       0.97614228       1.77630097       0.41554951        6 
C       2.44335586       1.34231184       0.17854483        6 
C       1.58756914      -1.07901403      -1.82152072        6 
C       0.45420026       1.52658457      -2.06704678        6 
H      -3.65220459       2.00634877      -0.15095157        1 
H      -1.58397705      -2.91432699       1.63132849        1 
H       0.05406002       1.56784700       2.52534211        1 
H      -3.37299481       2.02029827       1.61950610        1 
H      -3.56175019       0.47037917       0.73844346        1 
H      -2.78742654      -2.67339806       0.32120737        1 
H      -1.39404159      -3.77459909       0.08636757        1 
H       0.74130512       2.83487151       0.31138927        1 
H       2.99726625      -0.82750958       0.50654510        1 
H       1.50371836       1.67024620      -2.31282305        1 
H      -0.01019477       0.91764749      -2.84104959        1 
H      -0.02717175       2.50856691      -2.08880009        1 
H       2.12779870      -2.00481019      -1.61531281        1 
H       0.79206942      -1.29636949      -2.53813406        1 
H       2.28304609      -0.37955017      -2.28473834        1 
H       3.12941707       1.80696520       0.88793744        1 
H       2.81441075       1.50648258      -0.83303446        1 
H       1.48716328      -0.66702310       2.67770339        1 
