35
Lattice="0.0 0.0 0.0 0.0 0.0 0.0 0.0 0.0 0.0" Properties=species:S:1:pos:R:3:Z:I:1 pbc="F F F"
C       0.73379752      -0.31979826      -0.79135981        6 
C       0.27753184       1.07602709      -0.16742796        6 
C       0.04681791      -1.63030810      -0.34690689        6 
C      -1.17818460       1.28384194       0.24046653        6 
O      -1.02973872      -1.51431841       0.44075637        8 
O       0.56079600      -2.70533700      -0.57052707        8 
O      -2.02799542       0.60890956      -0.56063164        8 
O      -1.55079154       2.19426963       0.94543501        8 
C      -3.42376765       0.90058579      -0.40002492        6 
C      -1.54819401      -2.74096250       0.98450919        6 
C       2.16522272      -0.48664272      -0.03292179        6 
C       1.81994678      -0.84386789       1.41173924        6 
C       1.29265990       0.24764578       1.97508396        6 
C       1.34121405       1.36294767       0.94336863        6 
C       2.62856022       0.96163872       0.17907360        6 
C       0.87527377      -0.37031684      -2.31669781        6 
C       0.36641445       2.22547421      -1.23727665        6 
H      -3.75187224       0.65176206       0.61082914        1 
H      -0.80705895      -3.21490427       1.63042388        1 
H       0.83473646       0.33231799       2.95136109        1 
H      -3.93574861       0.27505692      -1.12864447        1 
H      -3.62415171       1.95658764      -0.58996315        1 
H      -2.42715450      -2.45187944       1.55681272        1 
H      -1.81784306      -3.43092613       0.18421882        1 
H       1.27087111       2.37700638       1.33135967        1 
H       2.82382332      -1.17573360      -0.55662224        1 
H       1.34050733       2.27802979      -1.71436371        1 
H      -0.38196365       2.09015913      -2.01905914        1 
H       0.17558415       3.17815005      -0.74182547        1 
H       1.20549207      -1.36710413      -2.61092370        1 
H      -0.07937190      -0.16463411      -2.80761009        1 
H       1.60930889       0.34896844      -2.68010225        1 
H       3.51215981       1.00938495       0.81652216        1 
H       2.82384613       1.51848401      -0.73606167        1 
H       1.87615275      -1.84115258       1.82656550        1 
