35
Lattice="0.0 0.0 0.0 0.0 0.0 0.0 0.0 0.0 0.0" Properties=species:S:1:pos:R:3:Z:I:1 pbc="F F F"
C       0.47931849       1.07211696       0.29670100        6 
C       0.62702561      -0.46900748       0.79748418        6 
C      -0.78777296       1.40475465      -0.49751488        6 
C      -0.59926929      -1.35839508       0.54630728        6 
O      -1.89181200       1.30494120       0.26032683        8 
O      -0.81261611       1.80142889      -1.63947129        8 
O      -0.40689050      -2.27699031      -0.42459022        8 
O      -1.62178019      -1.30535679       1.18504898        8 
C      -1.50782927      -3.16704140      -0.67911148        6 
C      -3.14499121       1.57495210      -0.38881967        6 
C       1.74936542       1.22871372      -0.62819798        6 
C       1.55810080       0.36572941      -1.86432456        6 
C       1.66439954      -0.90716185      -1.47981387        6 
C       1.92849049      -0.91603940       0.01999138        6 
C       2.78215962       0.36909614       0.13154638        6 
C       0.51704206       2.10170058       1.44841785        6 
C       0.85236868      -0.59683502       2.32234858        6 
H      -1.75517179      -3.73705394       0.21771671        1 
H      -3.29321560       0.89145763      -1.22669738        1 
H       1.50621527      -1.79148074      -2.07846794        1 
H      -1.16705042      -3.82853378      -1.47301026        1 
H      -2.38643917      -2.60507436      -0.99922135        1 
H      -3.90395298       1.41159169       0.37268672        1 
H      -3.17549969       2.60237991      -0.75538111        1 
H       2.35387758      -1.83613462       0.42103643        1 
H       1.99628106       2.27383107      -0.81155406        1 
H       1.72772719      -0.04286671       2.65521945        1 
H      -0.01896046      -0.25297864       2.87812313        1 
H       1.01124880      -1.64898274       2.57563664        1 
H       0.40674491       3.10857245       1.03571220        1 
H      -0.29535471       1.93744818       2.15486345        1 
H       1.46478075       2.06889682       1.98462096        1 
H       3.72419735       0.28430762      -0.41118628        1 
H       2.98509844       0.69624526       1.15197577        1 
H       1.28709884       0.74207104      -2.83887152        1 
