35
Lattice="0.0 0.0 0.0 0.0 0.0 0.0 0.0 0.0 0.0" Properties=species:S:1:pos:R:3:Z:I:1 pbc="F F F"
C       0.81137785       0.33559787      -0.56630114        6 
C      -0.79716350       0.54984120      -0.49193384        6 
C       1.38711795      -0.98674324      -0.03218531        6 
C      -1.65732717      -0.47624215       0.27886764        6 
O       2.68851990      -1.11546067      -0.42165477        8 
O       0.88015078      -1.78585955       0.70682109        8 
O      -2.70027610      -0.91651951      -0.47874207        8 
O      -1.47877205      -0.88445454       1.39392116        8 
C      -3.55732110      -1.88191860       0.15278251        6 
C       3.37984446      -2.26243265       0.10007428        6 
C       1.37045365       1.55202679       0.29213276        6 
C       0.97008145       1.34682502       1.73980232        6 
C      -0.34912117       1.54095569       1.81607839        6 
C      -0.84562436       1.88343560       0.41894131        6 
C       0.37521458       2.66028295      -0.10889935        6 
C       1.32545722       0.47444101      -2.02704646        6 
C      -1.44671189       0.85709547      -1.85412121        6 
H      -2.98039977      -2.74737663       0.48152143        1 
H       2.88932532      -3.18424227      -0.21705093        1 
H      -0.98465848       1.37121263       2.67215977        1 
H      -4.28267243      -2.16619750      -0.60728118        1 
H      -4.06095396      -1.44189932       1.01579601        1 
H       4.38618533      -2.20491398      -0.31004181        1 
H       3.40639441      -2.23294240       1.19074903        1 
H      -1.81738187       2.37518083       0.36196467        1 
H       2.42771443       1.72595086       0.09649472        1 
H      -0.98901088       1.71875221      -2.33598301        1 
H      -1.38618678       0.00855815      -2.53633626        1 
H      -2.50260324       1.08377333      -1.71230439        1 
H       2.41233730       0.43913937      -2.03954482        1 
H       0.95908132      -0.33950656      -2.65708046        1 
H       1.01680550       1.41241933      -2.48044468        1 
H       0.54753283       3.58244867       0.44741061        1 
H       0.34750490       2.88533639      -1.17458303        1 
H       1.62320046       0.97648985       2.51816539        1 
