35
Lattice="0.0 0.0 0.0 0.0 0.0 0.0 0.0 0.0 0.0" Properties=species:S:1:pos:R:3:Z:I:1 pbc="F F F"
C       1.01412758       0.64696850      -0.44726048        6 
C      -0.59240725       0.70617185      -0.57166246        6 
C       1.58517324      -0.78062165      -0.39190285        6 
C      -1.29459443      -0.63567363      -0.36140724        6 
O       1.57411304      -1.31861230       0.84266363        8 
O       2.01677313      -1.36731061      -1.35363932        8 
O      -2.53960926      -0.45333215       0.13703202        8 
O      -0.88261134      -1.72143514      -0.68618976        8 
C      -3.34610066      -1.63750094       0.26870599        6 
C       1.92925885      -2.71114674       0.91296693        6 
C       1.25121910       1.52166013       0.85108057        6 
C       0.58550076       0.87018730       2.05628621        6 
C      -0.73524371       1.00119018       1.91001256        6 
C      -0.97198022       1.72213171       0.58972152        6 
C       0.24289837       2.66631569       0.59137505        6 
C       1.74100385       1.30337530      -1.64343105        6 
C      -1.10338965       1.20269784      -1.94180037        6 
H      -3.47915859      -2.11934060      -0.70129674        1 
H       2.95426771      -2.86582596       0.57310075        1 
H      -1.51474990       0.58510249       2.53275220        1 
H      -4.30129881      -1.29505297       0.66105589        1 
H      -2.87869650      -2.34331541       0.95710806        1 
H       1.82591166      -2.98382985       1.96145729        1 
H       1.24771230      -3.29325853       0.29139378        1 
H      -1.95682324       2.16391324       0.45093349        1 
H       2.29940671       1.79273819       0.97670121        1 
H      -0.74776166       2.21082484      -2.15265100        1 
H      -0.78051434       0.54618024      -2.75216369        1 
H      -2.19532593       1.22789050      -1.93529883        1 
H       2.81725805       1.29459557      -1.45579679        1 
H       1.57216718       0.74250707      -2.56077537        1 
H       1.44009718       2.33669719      -1.80184775        1 
H       0.20393748       3.37905944       1.41639646        1 
H       0.39415642       3.21031376      -0.34068072        1 
H       1.11164798       0.32796796       2.82747974        1 
