35
Lattice="0.0 0.0 0.0 0.0 0.0 0.0 0.0 0.0 0.0" Properties=species:S:1:pos:R:3:Z:I:1 pbc="F F F"
C       0.82102941       0.52449436      -0.45756643        6 
C      -0.76703108       0.45115988      -0.59825845        6 
C       1.56625629      -0.80367601      -0.36123046        6 
C      -1.45284312      -0.77046219       0.03934706        6 
O       2.74108855      -0.64353080       0.29920537        8 
O       1.20420581      -1.86079857      -0.80411337        8 
O      -2.80130754      -0.66149946      -0.13728773        8 
O      -0.96764464      -1.69007910       0.63928912        8 
C      -3.59315484      -1.71568415       0.43187651        6 
C       3.54819081      -1.82873619       0.42167739        6 
C       1.04422789       1.57319434       0.68980242        6 
C       0.41500139       1.04521631       1.96806322        6 
C      -0.91178308       1.11461409       1.82295229        6 
C      -1.18757649       1.64273603       0.41815420        6 
C      -0.01705575       2.62954002       0.28823947        6 
C       1.49405426       1.08120195      -1.76178681        6 
C      -1.31144444       0.68615057      -2.01316709        6 
H      -3.30889948      -2.68031784       0.00849579        1 
H       3.85861561      -2.18428859      -0.56274850        1 
H      -1.66489756       0.73141627       2.49896496        1 
H      -4.62340014      -1.47447805       0.17681393        1 
H      -3.46545008      -1.75229026       1.51535431        1 
H       4.41342100      -1.53210577       1.01080687        1 
H       2.98894817      -2.61847862       0.92528789        1 
H      -2.19423060       2.00609148       0.22129231        1 
H       2.07960638       1.89870386       0.76245847        1 
H      -0.98169071       1.64600962      -2.41125201        1 
H      -0.98023268      -0.09964292      -2.69668578        1 
H      -2.39986050       0.68384137      -1.99939853        1 
H       2.56893121       1.16885589      -1.59095939        1 
H       1.33803162       0.40237044      -2.60114995        1 
H       1.12360837       2.06272305      -2.04709810        1 
H      -0.08362773       3.43945108       1.01614618        1 
H       0.10619579       3.05535469      -0.70660345        1 
H       0.96435407       0.60140323       2.78697844        1 
