35
Lattice="0.0 0.0 0.0 0.0 0.0 0.0 0.0 0.0 0.0" Properties=species:S:1:pos:R:3:Z:I:1 pbc="F F F"
C      -0.78842512      -0.76504256      -0.40246437        6 
C       0.73837536      -0.31532943      -0.64337095        6 
C      -1.65255970       0.23317946       0.39374133        6 
C       1.08115114       1.09756182      -0.17141448        6 
O      -2.52009553       0.88522694      -0.41155305        8 
O      -1.58607219       0.44676287       1.57739343        8 
O       2.42273064       1.28547957      -0.19680038        8 
O       0.31782479       1.95181568       0.20112277        8 
C       2.88459457       2.57432179       0.24448085        6 
C      -3.28366758       1.92984202       0.21354827        6 
C      -0.55162553      -2.05667818       0.51117958        6 
C       0.06279037      -1.63127543       1.84147559        6 
C       1.32504448      -1.26259741       1.60387773        6 
C       1.56786364      -1.42826017       0.11528747        6 
C       0.69528237      -2.67001560      -0.16231664        6 
C      -1.54142227      -1.18415130      -1.68002799        6 
C       1.12512362      -0.31810022      -2.14777378        6 
H       2.49069192       3.36265507      -0.39903238        1 
H      -2.61224858       2.68800614       0.61875685        1 
H       2.02196393      -0.81530785       2.29961961        1 
H       3.96962810       2.53217358       0.17679382        1 
H       2.56943020       2.75994574       1.27231441        1 
H      -3.90561382       2.34567383      -0.57694009        1 
H      -3.90270909       1.52683734       1.01656869        1 
H       2.60605499      -1.45625575      -0.21053286        1 
H      -1.44513583      -2.67820872       0.57552211        1 
H       0.96107411      -1.29318340      -2.60261659        1 
H       0.54904935       0.41889857      -2.71166812        1 
H       2.18218576      -0.07074345      -2.24776453        1 
H      -2.55592552      -1.49210185      -1.41942907        1 
H      -1.62870497      -0.36800719      -2.39613782        1 
H      -1.06092766      -2.02779199      -2.17475748        1 
H       1.05806792      -3.55179848       0.36707484        1 
H       0.57191001      -2.91330623      -1.21807938        1 
H      -0.47870065      -1.55526376       2.77141242        1 
