35
Lattice="0.0 0.0 0.0 0.0 0.0 0.0 0.0 0.0 0.0" Properties=species:S:1:pos:R:3:Z:I:1 pbc="F F F"
C       0.47642557      -0.83696887       0.40512080        6 
C      -1.03512561      -0.35238255       0.60794234        6 
C       1.56470042       0.23084615       0.49702150        6 
C      -1.42635613       1.11952884       0.36058590        6 
O       2.68808255      -0.19184214      -0.13685699        8 
O       1.48859231       1.30124412       1.04160381        8 
O      -0.58607887       1.81420259      -0.41340033        8 
O      -2.51381402       1.55002595       0.67965266        8 
C      -1.01360995       3.12892473      -0.79871586        6 
C       3.81018058       0.70569996      -0.09177370        6 
C       0.42303952      -1.68841409      -0.91968209        6 
C       0.04716005      -0.77749301      -2.07351230        6 
C      -1.23867720      -0.44877186      -1.92109593        6 
C      -1.73349556      -1.11326423      -0.64437538        6 
C      -0.92552397      -2.42054370      -0.71172590        6 
C       0.94370834      -1.78571359       1.56328160        6 
C      -1.68786924      -0.78661420       1.92575165        6 
H      -1.94252239       3.07868388      -1.37043440        1 
H       4.12199879       0.87851358       0.93966436        1 
H      -1.80906087       0.25821658      -2.50867787        1 
H      -0.20597652       3.52541003      -1.41026657        1 
H      -1.16909432       3.75333160       0.08181940        1 
H       4.60077318       0.21134497      -0.65257406        1 
H       3.55287950       1.66111947      -0.55185443        1 
H      -2.81297999      -1.17987699      -0.51823117        1 
H       1.31261736      -2.29917785      -1.05854968        1 
H      -1.68965683      -1.86985747       2.03787051        1 
H      -1.17119820      -0.35198957       2.78445607        1 
H      -2.71881227      -0.43732457       1.94728993        1 
H       1.94960291      -2.14494461       1.33935203        1 
H       0.97592134      -1.25823278       2.51805360        1 
H       0.29936386      -2.65327858       1.67917303        1 
H      -1.19877365      -3.02669813      -1.57689515        1 
H      -0.98586533      -3.03550491       0.18530592        1 
H       0.74138112      -0.39631736      -2.81020714        1 
