35
Lattice="0.0 0.0 0.0 0.0 0.0 0.0 0.0 0.0 0.0" Properties=species:S:1:pos:R:3:Z:I:1 pbc="F F F"
C       1.19278858      -0.02253468      -0.48939028        6 
C      -0.04878451       0.99036165      -0.49690630        6 
C       0.87951448      -1.50496484      -0.25258882        6 
C      -1.40731693       0.30606024      -0.59396691        6 
O      -0.22288140      -1.72109524       0.48640214        8 
O       1.60298271      -2.40442029      -0.61301458        8 
O      -2.27882740       0.74351796       0.33707773        8 
O      -1.70954686      -0.47193015      -1.46743666        8 
C      -3.60822840       0.19953946       0.25655283        6 
C      -0.59064684      -3.09350634       0.70153867        6 
C       1.99586740       0.50001106       0.79896240        6 
C       1.17548860       0.18809831       2.04136776        6 
C       0.10789358       0.99002609       2.02867445        6 
C       0.20833253       1.86564291       0.79177266        6 
C       1.74648128       2.01919835       0.70586078        6 
C       2.08090109       0.05333593      -1.73967214        6 
C      -0.08212191       1.92212346      -1.74056833        6 
H      -4.06613684       0.44830031      -0.70207630        1 
H       0.21222562      -3.63452969       1.20393842        1 
H      -0.74281818       0.96549161       2.69433101        1 
H      -4.15955349       0.65717450       1.07529741        1 
H      -3.58187268      -0.88526265       0.36924004        1 
H      -1.48087693      -3.05892497       1.32622044        1 
H      -0.81156384      -3.57505521      -0.25216263        1 
H      -0.39018664       2.77507850       0.79999289        1 
H       3.02681997       0.14821036       0.79810505        1 
H       0.80369496       2.55040358      -1.80785909        1 
H      -0.17444086       1.34701880      -2.66124936        1 
H      -0.95109643       2.58231763      -1.66811899        1 
H       2.92709747      -0.62393000      -1.62969566        1 
H       1.52970984      -0.25395304      -2.63056951        1 
H       2.46407074       1.06006690      -1.90189993        1 
H       2.15545781       2.55424389       1.56373153        1 
H       2.11286350       2.48101337      -0.21099346        1 
H       1.37362586      -0.62943662       2.72183865        1 
