35
Lattice="0.0 0.0 0.0 0.0 0.0 0.0 0.0 0.0 0.0" Properties=species:S:1:pos:R:3:Z:I:1 pbc="F F F"
C       0.28645667      -0.92459205       0.47477975        6 
C      -1.14240924      -0.20148188       0.52458535        6 
C       1.48392129       0.01524472       0.54954281        6 
C      -1.18111711       1.32296263       0.32074648        6 
O       2.52252764      -0.44941247      -0.17837327        8 
O       1.54052728       1.02053560       1.21377591        8 
O      -0.30592734       1.77390678      -0.59282559        8 
O      -2.01496865       2.03865176       0.82631420        8 
C      -0.32240153       3.18662995      -0.84810890        6 
C       3.73028508       0.33092263      -0.11877652        6 
C       0.18546127      -1.84136932      -0.80460975        6 
C       0.08289914      -0.96249467      -2.03759741        6 
C      -1.12308564      -0.38824959      -2.01940112        6 
C      -1.84081748      -0.86619864      -0.76714379        6 
C      -1.28692804      -2.30386049      -0.69128234        6 
C       0.54876658      -1.83752116       1.71287616        6 
C      -1.96946888      -0.50813211       1.78038189        6 
H      -1.30940260       3.50645502      -1.18616934        1 
H       4.08913972       0.40330258       0.90901414        1 
H      -1.49621942       0.37171062      -2.69193087        1 
H       0.42086926       3.34686163      -1.62658051        1 
H      -0.05381122       3.73499480       0.05584950        1 
H       4.44882700      -0.19864068      -0.74067035        1 
H       3.55164845       1.33465870      -0.50735840        1 
H      -2.92258583      -0.73644206      -0.75001410        1 
H       0.95321592      -2.61293458      -0.82899167        1 
H      -2.10444638      -1.57900916       1.92508362        1 
H      -1.49681882      -0.09522375       2.67338953        1 
H      -2.95164483      -0.04624713       1.69034507        1 
H       1.52888686      -2.30902864       1.60587480        1 
H       0.54796222      -1.26130794       2.63864798        1 
H      -0.19154245      -2.63080950       1.79889670        1 
H      -1.59399721      -2.90792938      -1.54624581        1 
H      -1.53284660      -2.83607421       0.22754236        1 
H       0.89589387      -0.76697185      -2.72278961        1 
