35
Lattice="0.0 0.0 0.0 0.0 0.0 0.0 0.0 0.0 0.0" Properties=species:S:1:pos:R:3:Z:I:1 pbc="F F F"
C       0.85926132      -0.60670908       0.67090319        6 
C      -0.73694420      -0.67340374       0.42864601        6 
C       1.46148934       0.81224942       0.59120050        6 
C      -1.36071788       0.66511897       0.02627883        6 
O       1.92238952       1.14778005      -0.62285235        8 
O       1.66668684       1.49131332       1.57173337        8 
O      -2.69549641       0.67649692       0.25036235        8 
O      -0.80081800       1.58418923      -0.51906245        8 
C      -3.39949383       1.84772861      -0.19955273        6 
C       2.40010370       2.49297012      -0.76880092        6 
C       1.36783234      -1.57736891      -0.49097802        6 
C       1.04640366      -0.98536134      -1.85546075        6 
C      -0.27532317      -1.05393260      -2.02880647        6 
C      -0.85882036      -1.69554634      -0.78425835        6 
C       0.28133840      -2.67917575      -0.43986193        6 
C       1.30875259      -1.16129174       2.03634702        6 
C      -1.50646698      -1.23436949       1.64462152        6 
H      -3.01598527       2.73896713       0.29879106        1 
H       3.21671805       2.69348663      -0.07398658        1 
H      -0.85399038      -0.63748928      -2.84231494        1 
H      -4.44077888       1.67747544       0.06579112        1 
H      -3.29178455       1.96623785      -1.27902114        1 
H       2.74300499       2.56818978      -1.79906699        1 
H       1.58219118       3.19198458      -0.58840513        1 
H      -1.86792028      -2.09835647      -0.87056414        1 
H       2.40137982      -1.88870227      -0.34044051        1 
H      -1.12182547      -2.20566685       1.94968190        1 
H      -1.44602462      -0.56283989       2.50347007        1 
H      -2.55868580      -1.35490686       1.39220724        1 
H       2.39668424      -1.09630336       2.10811559        1 
H       0.89597987      -0.57893623       2.85826125        1 
H       1.02863919      -2.20469712       2.16539670        1 
H       0.41794233      -3.42834708      -1.22049202        1 
H       0.17895126      -3.18039808       0.52272654        1 
H       1.76758821      -0.51677838      -2.50658083        1 
