35
Lattice="0.0 0.0 0.0 0.0 0.0 0.0 0.0 0.0 0.0" Properties=species:S:1:pos:R:3:Z:I:1 pbc="F F F"
C      -0.43495033      -0.89125310       0.64026179        6 
C      -0.99187464       0.61845968       0.45781017        6 
C       1.09477643      -1.10633156       0.59036490        6 
C      -0.00827146       1.75538212       0.14868151        6 
O       1.60160691      -1.21786742      -0.65192770        8 
O       1.76184264      -1.34709256       1.57013146        8 
O       1.26780209       1.38221846      -0.01629427        8 
O      -0.35560461       2.91321763       0.09398227        8 
C       2.20470653       2.42906610      -0.32813137        6 
C       3.01093936      -1.46578694      -0.73566537        6 
C      -1.17030292      -1.61183338      -0.58437043        6 
C      -0.67708198      -1.03288067      -1.90572741        6 
C      -1.16389895       0.20548849      -2.01526966        6 
C      -1.98878159       0.47306792      -0.77071795        6 
C      -2.56007334      -0.93680552      -0.52490326        6 
C      -0.88015445      -1.55565262       1.95905093        6 
C      -1.77872598       1.11883170       1.69307562        6 
H       1.92424433       2.92035598      -1.26074987        1 
H       3.26518263      -2.42078323      -0.27294111        1 
H      -0.94670501       0.93560821      -2.78371140        1 
H       3.16744739       1.93354890      -0.42985431        1 
H       2.23368516       3.16750493       0.47390335        1 
H       3.23943645      -1.48203413      -1.79979212        1 
H       3.56749431      -0.67148873      -0.23527336        1 
H      -2.68838738       1.30558999      -0.82435937        1 
H      -1.13672353      -2.69827898      -0.49998633        1 
H      -2.62635692       0.47524185       1.92411328        1 
H      -1.14283521       1.17313808       2.57955219        1 
H      -2.15589061       2.12029832       1.48939957        1 
H      -0.52517463      -2.58770187       1.98033843        1 
H      -0.45216574      -1.05276216       2.82498224        1 
H      -1.96245224      -1.57242125       2.06250550        1 
H      -3.20849164      -1.26080912      -1.34035840        1 
H      -3.09176356      -1.05498847       0.41888684        1 
H       0.00906528      -1.52927195      -2.57410444        1 
