35
Lattice="0.0 0.0 0.0 0.0 0.0 0.0 0.0 0.0 0.0" Properties=species:S:1:pos:R:3:Z:I:1 pbc="F F F"
C       0.09114788      -0.95150556       0.54951219        6 
C      -1.21312835      -0.01549998       0.44796912        6 
C       1.40717066      -0.17888769       0.57009870        6 
C      -0.92501797       1.48662610       0.28931663        6 
O       2.34933225      -0.75869706      -0.20112679        8 
O       1.62402901       0.79116496       1.25599346        8 
O      -0.09607668       1.76594631      -0.73499905        8 
O      -1.42799716       2.34796724       0.96977869        8 
C       0.28486889       3.14356491      -0.87936940        6 
C       3.64331030      -0.12924341      -0.19163884        6 
C      -0.09014066      -1.93164342      -0.67615396        6 
C       0.04995032      -1.14082483      -1.96482040        6 
C      -1.03031036      -0.36454022      -2.07619413        6 
C      -1.90853682      -0.61986210      -0.86068530        6 
C      -1.62283509      -2.12654711      -0.65830714        6 
C       0.16107382      -1.77456923       1.86198403        6 
C      -2.17403035      -0.14569418       1.64246756        6 
H      -0.59351993       3.77534997      -1.01779421        1 
H       4.06055586      -0.12676349       0.81642915        1 
H      -1.21704451       0.39518237      -2.82179174        1 
H       0.92297417       3.17509094      -1.76058152        1 
H       0.83331139       3.47075925       0.00513888        1 
H       4.26002127      -0.72386745      -0.86214908        1 
H       3.56479083       0.89836900      -0.54950747        1 
H      -2.95030887      -0.31071171      -0.94566739        1 
H       0.52951741      -2.82325840      -0.59372727        1 
H      -2.50595597      -1.17256865       1.78774487        1 
H      -1.71025771       0.20318225       2.56542198        1 
H      -3.05408654       0.47516983       1.47220283        1 
H       1.07079773      -2.38098905       1.85922172        1 
H       0.19026029      -1.12499300       2.73711317        1 
H      -0.68662098      -2.45196536       1.95777290        1 
H      -1.97115030      -2.72715076      -1.49959126        1 
H      -2.01914269      -2.54433974       0.26733338        1 
H       0.92719986      -1.14451451      -2.59554107        1 
