35
Lattice="0.0 0.0 0.0 0.0 0.0 0.0 0.0 0.0 0.0" Properties=species:S:1:pos:R:3:Z:I:1 pbc="F F F"
C       1.01881974       0.40326504      -0.59072844        6 
C      -0.51481433       0.79913838      -0.36893618        6 
C       1.49535178      -1.04069100      -0.33721539        6 
C      -1.54649719      -0.32395793      -0.45190018        6 
O       0.73141679      -1.76195913       0.48965516        8 
O       2.57816109      -1.43138581      -0.71806795        8 
O      -2.72629571       0.09358756       0.07829615        8 
O      -1.39743678      -1.43109704      -0.89918599        8 
C      -3.81333184      -0.84468141       0.01099391        6 
C       1.18761498      -3.08961428       0.78829696        6 
C       1.69178767       1.22391498       0.63475263        6 
C       1.27234888       0.55034358       1.93376614        6 
C      -0.02965903       0.79294474       2.10933179        6 
C      -0.49243337       1.65852162       0.95147290        6 
C       0.80027943       2.47729652       0.70456231        6 
C       1.61820644       0.84886324      -1.93027635        6 
C      -1.04739288       1.71650268      -1.52700091        6 
H      -4.05557298      -1.07581230      -1.02804151        1 
H       2.15582630      -3.06264527       1.29134350        1 
H      -0.68141995       0.37402783       2.86429805        1 
H      -4.65322799      -0.35222228       0.49693182        1 
H      -3.55589869      -1.76872160       0.53090308        1 
H       0.42597208      -3.51497514       1.43840583        1 
H       1.27550421      -3.67489294      -0.12813086        1 
H      -1.41876305       2.20890437       1.10266830        1 
H       2.76133679       1.35920763       0.48117444        1 
H      -0.43639794       2.60168031      -1.68190735        1 
H      -1.09219759       1.17199517      -2.47234558        1 
H      -2.05680292       2.04605327      -1.27878799        1 
H       2.66755609       0.56211837      -1.96744940        1 
H       1.11315152       0.36373290      -2.76890841        1 
H       1.54964932       1.92734422      -2.06526736        1 
H       1.05013536       3.11094548       1.55651340        1 
H       0.80049951       3.08176193      -0.20108829        1 
H       1.89901709      -0.11230768       2.51548039        1 
