35
Lattice="0.0 0.0 0.0 0.0 0.0 0.0 0.0 0.0 0.0" Properties=species:S:1:pos:R:3:Z:I:1 pbc="F F F"
C       0.81188539      -0.46742071      -0.75596749        6 
C       0.38138384       1.02424748      -0.27844632        6 
C      -0.19340632      -1.61842531      -0.60018200        6 
C      -1.00049079       1.17014356       0.38236885        6 
O      -0.95231059      -1.54029109       0.49863100        8 
O      -0.26657660      -2.54753301      -1.37338810        8 
O      -1.93104911       1.55189020      -0.53021660        8 
O      -1.29787751       0.92217017       1.52187921        8 
C      -3.28285723       1.64021522      -0.05109880        6 
C      -1.87805836      -2.61613990       0.72334516        6 
C       2.08387789      -0.75231860       0.16339333        6 
C       1.64641635      -0.85469969       1.61190272        6 
C       1.29786519       0.37096810       2.01120653        6 
C       1.49929275       1.30870346       0.83011891        6 
C       2.73578565       0.64676676       0.18513330        6 
C       1.24409122      -0.50708046      -2.23802606        6 
C       0.49459625       2.08865530      -1.39068989        6 
H      -3.62429074       0.66705040       0.30627722        1 
H      -1.34499930      -3.56106047       0.84073676        1 
H       0.84647898       0.65159584       2.94983133        1 
H      -3.87371039       1.96314588      -0.90589201        1 
H      -3.35704886       2.36391894       0.76210216        1 
H      -2.40245167      -2.35218222       1.63899062        1 
H      -2.57470192      -2.70287604      -0.11232432        1 
H       1.56833682       2.36998889       1.07087517        1 
H       2.67421651      -1.58054633      -0.22809676        1 
H       1.51706946       2.18586027      -1.75008994        1 
H      -0.15221369       1.86953123      -2.23828387        1 
H       0.19208968       3.05963274      -0.99196182        1 
H       1.62385022      -1.49993772      -2.47450269        1 
H       0.40248808      -0.31876167      -2.90685709        1 
H       2.02358680       0.21870196      -2.45559203        1 
H       3.60629420       0.67730478       0.84083413        1 
H       3.01019397       1.03940270      -0.79351019        1 
H       1.53088018      -1.78023089       2.15924345        1 
