29
Lattice="0.0 0.0 0.0 0.0 0.0 0.0 0.0 0.0 0.0" Properties=species:S:1:pos:R:3:Z:I:1 pbc="F F F"
C       0.50776316       1.01312101       0.72070154        6 
C       0.72490390      -0.51909345       1.00235957        6 
C      -0.78078236       1.42591725       0.04571854        6 
C      -0.30182905      -1.52688338       0.54032045        6 
O      -1.84298936       1.06777298       0.80220001        8 
O      -0.87520187       2.04498407      -0.98446388        8 
O      -0.84775465      -1.22182543      -0.65292165        8 
O      -0.56532091      -2.53666788       1.15033816        8 
C      -1.81380603      -2.15251054      -1.17023571        6 
C      -3.13859611       1.35777578       0.25103562        6 
C       1.80631162       1.42772981      -0.04929176        6 
C       1.78875430       0.71731363      -1.39172897        6 
C       1.99342461      -0.58360810      -1.16231011        6 
C       2.14696985      -0.76856101       0.33696455        6 
C       2.84010380       0.56179990       0.70809768        6 
H      -1.35965559      -3.13335407      -1.31892397        1 
H      -3.25975056       0.85738696      -0.71141456        1 
H       1.93076010      -1.39022649      -1.88045664        1 
H      -2.13846156      -1.73275620      -2.11998414        1 
H      -2.65521211      -2.24883728      -0.48204496        1 
H      -3.85497467       0.97476331       0.97472262        1 
H      -3.26753137       2.43257317       0.11483195        1 
H       2.60767529      -1.69516187       0.67548585        1 
H       1.96584352       2.50397150      -0.07663488        1 
H       3.84239356       0.63943682       0.28404134        1 
H       2.87726728       0.75352743       1.78490885        1 
H       1.52423790       1.18671802      -2.32801249        1 
H       0.49288369       1.51723991       1.69224171        1 
H       0.81772661      -0.68783094       2.07465101        1 
