62
Lattice="0.0 0.0 0.0 0.0 0.0 0.0 0.0 0.0 0.0" Properties=species:S:1:pos:R:3:Z:I:1 pbc="F F F"
C       3.42924959      -0.03094928      -0.82391963        6 
C       4.82218811      -0.50936171      -0.29910238        6 
C       2.59350116       0.73941612       0.17088615        6 
C       5.24782666       0.02976338       1.05598746        6 
O       1.77291821       1.62743566      -0.46107632        8 
O       2.51899352       0.51764453       1.35216060        8 
O       5.29291392       1.37955344       1.02323909        8 
O       5.57422483      -0.63086409       2.00749257        8 
C       5.59131928       2.02884809       2.27297356        6 
C       0.44281621       1.74699281       0.07881824        6 
C       2.75390774      -1.42780331      -1.14550118        6 
C       3.47951589      -2.00676610      -2.39564518        6 
C       4.80828642      -2.53564857      -1.78293419        6 
C       4.66510873      -2.04764130      -0.32943480        6 
O       3.26456849      -2.23892517      -0.08037820        8 
H       3.51714127       0.56849564      -1.72852717        1 
H       5.59538357      -0.17930366      -0.99861117        1 
C       1.24511603      -1.48275999      -1.19152645        6 
H       2.88390403      -2.81436867      -2.82365130        1 
H       3.62932819      -1.25242039      -3.17035080        1 
H       4.84808722      -3.62556562      -1.80876775        1 
H       5.70252353      -2.15051992      -2.27742647        1 
H       5.24704473      -2.56923939       0.42457277        1 
C      -4.01498428      -0.08425769       1.39341273        6 
C      -3.76510144       0.96484396       0.25615998        6 
C      -2.85225281      -0.98860831       1.77935081        6 
C      -2.41954055       0.84477563      -0.41765445        6 
O      -1.77263537      -0.25918007       2.13248879        8 
O      -2.90224762      -2.18914136       1.85056825        8 
O      -1.84401310       2.06940595      -0.55543281        8 
O      -1.91106289      -0.17311848      -0.81349480        8 
C      -0.49668306       2.07808167      -1.07111034        6 
C      -0.61357703      -1.01200586       2.55975768        6 
C      -5.23236235      -0.86229961       0.83630166        6 
C      -6.50032101      -0.00230315       1.00990759        6 
C      -6.26182367       1.09025399      -0.06983665        6 
C      -4.94158254       0.60462802      -0.73113009        6 
O      -5.02246188      -0.81933891      -0.58203280        8 
H      -4.27740211       0.44846956       2.31191367        1 
H      -3.86416314       1.98433659       0.62378933        1 
H      -0.33737098      -1.74283924       1.79990795        1 
H      -5.28909984      -1.89386684       1.17031634        1 
H      -7.38731843      -0.59587442       0.78390043        1 
H      -6.60783135       0.39735271       2.02043672        1 
H      -7.06217500       1.10327074      -0.81200263        1 
H      -6.17221889       2.09748718       0.34218776        1 
C      -4.75117648       0.99091353      -2.18082676        6 
H      -0.82892858      -1.53032207       3.49502464        1 
H       0.18175679      -0.28361896       2.69613868        1 
H       5.60570167       3.09371548       2.05129554        1 
H       6.55924154       1.70072579       2.65406072        1 
H       4.81422871       1.79754705       3.00302891        1 
H      -0.33476202       3.08377170      -1.45601820        1 
H      -0.39901303       1.34956629      -1.87594405        1 
H       0.41631933       2.52879570       0.84181397        1 
H       0.14956431       0.80837337       0.54120701        1 
H       0.92000858      -2.50719769      -1.38189634        1 
H       0.85217371      -0.84767772      -1.98719274        1 
H       0.80094620      -1.16804120      -0.24845579        1 
H      -4.65724823       2.07586507      -2.27664960        1 
H      -5.61355872       0.66487709      -2.76566330        1 
H      -3.85833077       0.52062841      -2.59598523        1 
