62
Lattice="0.0 0.0 0.0 0.0 0.0 0.0 0.0 0.0 0.0" Properties=species:S:1:pos:R:3:Z:I:1 pbc="F F F"
C       3.36707553      -0.03358500      -0.81178506        6 
C       4.86615270      -0.42279474      -0.57852050        6 
C       2.70158600       0.70799755       0.32567040        6 
C       5.49241822       0.11216780       0.69844833        6 
O       1.82284072       1.64900443      -0.14064246        8 
O       2.79039824       0.43298421       1.49280518        8 
O       5.43218443       1.46152158       0.71009161        8 
O       6.02630174      -0.54547794       1.55306868        8 
C       5.89368697       2.10489694       1.91254733        6 
C       0.49838726       1.64489942       0.42440001        6 
C       2.72585124      -1.47193295      -0.99788861        6 
C       3.18715162      -1.99189635      -2.38823822        6 
C       4.65792454      -2.40952987      -2.10591922        6 
C       4.80695997      -1.96639728      -0.63663328        6 
O       3.51161462      -2.25826084      -0.09379452        8 
H       3.24485410       0.55973464      -1.71604068        1 
H       5.47033620      -0.01879675      -1.39542979        1 
C       1.25351157      -1.62563088      -0.70015486        6 
H       2.57634514      -2.84868734      -2.67778699        1 
H       3.09034836      -1.23402465      -3.16824486        1 
H       4.78298104      -3.49029344      -2.18436297        1 
H       5.38299829      -1.93459769      -2.77026120        1 
H       5.57227983      -2.46383218      -0.04814332        1 
C      -4.18116567      -0.25172264       1.36410832        6 
C      -3.79133208       0.92966000       0.41335564        6 
C      -3.07659398      -1.22351983       1.74698219        6 
C      -2.40446416       0.82629773      -0.17493620        6 
O      -2.04187859      -0.56368966       2.31228649        8 
O      -3.13480026      -2.42151205       1.64820580        8 
O      -1.80180702       2.04344888      -0.18874604        8 
O      -1.89004843      -0.17224893      -0.61151325        8 
C      -0.44863068       2.07588807      -0.68657899        6 
C      -0.93144541      -1.37871532       2.74168533        6 
C      -5.34830167      -0.90971867       0.58570138        6 
C      -6.61608425      -0.05382412       0.77536081        6 
C      -6.25411713       1.19064470      -0.08405115        6 
C      -4.89255923       0.76885422      -0.70482747        6 
O      -5.01225078      -0.65786638      -0.78546432        8 
H      -4.53289297       0.16492641       2.31238904        1 
H      -3.87508383       1.89427763       0.91012224        1 
H      -0.58766123      -2.01012449       1.92281980        1 
H      -5.44636263      -1.97835181       0.75193958        1 
H      -7.48309925      -0.57552933       0.36783544        1 
H      -6.82101223       0.18151136       1.82165903        1 
H      -6.98379032       1.35625960      -0.87828688        1 
H      -6.17680496       2.11225601       0.49672145        1 
C      -4.57730900       1.36721213      -2.05730591        6 
H      -1.22996621      -2.00937375       3.58045796        1 
H      -0.15348973      -0.68209067       3.04558517        1 
H       5.80063309       3.17229032       1.72462510        1 
H       6.93120265       1.83776918       2.11690507        1 
H       5.26623535       1.80635445       2.75362203        1 
H      -0.27013981       3.10846701      -0.98312947        1 
H      -0.35086358       1.41912042      -1.55119832        1 
H       0.44500973       2.33578978       1.26936995        1 
H       0.24658820       0.64625105       0.77581040        1 
H       0.95031847      -2.66065608      -0.86832164        1 
H       0.64400701      -0.98687443      -1.34142590        1 
H       1.04535946      -1.38117503       0.34063339        1 
H      -4.44048395       2.44809184      -1.97165133        1 
H      -5.40149679       1.17509175      -2.74727378        1 
H      -3.67081891       0.92914162      -2.47930901        1 
