62
Lattice="0.0 0.0 0.0 0.0 0.0 0.0 0.0 0.0 0.0" Properties=species:S:1:pos:R:3:Z:I:1 pbc="F F F"
C       4.15976651      -0.57626815      -0.73121887        6 
C       5.15773621       0.51074559      -0.21200029        6 
C       2.69419694      -0.25525915      -0.52504252        6 
C       4.54524362       1.82662514       0.23783825        6 
O       1.97703139      -0.77874920      -1.54464115        8 
O       2.22691641       0.32823666       0.41874018        8 
O       3.85898205       2.39044991      -0.78163524        8 
O       4.69920079       2.34555853       1.31201876        8 
C       3.13204955       3.59047444      -0.45955558        6 
C       0.53234590      -0.75192561      -1.61876562        6 
C       4.58080401      -1.80296282       0.16889428        6 
C       5.97579861      -2.28575543      -0.32072992        6 
C       6.92014027      -1.21015905       0.28947108        6 
C       5.89177622      -0.24965688       0.91848875        6 
O       4.89022555      -1.15171384       1.40842381        8 
H       4.31170859      -0.79839671      -1.78541652        1 
H       5.84449121       0.77372334      -1.02179549        1 
C       3.54595079      -2.88719691       0.37164856        6 
H       6.18345411      -3.27755362       0.08409106        1 
H       6.03310212      -2.34868945      -1.40933088        1 
H       7.55570021      -1.63866297       1.06549136        1 
H       7.56319879      -0.72566780      -0.44816340        1 
H       6.24217168       0.38473036       1.72714351        1 
C      -5.10034463       0.58097663      -0.41269649        6 
C      -3.96581820      -0.48567277      -0.56522088        6 
C      -4.68611734       1.92373586       0.16742494        6 
C      -2.61399718      -0.08237245      -0.01765330        6 
O      -3.76412287       2.50898897      -0.62889084        8 
O      -5.15235456       2.44029973       1.14863415        8 
O      -1.63070441      -0.56623422      -0.81537607        8 
O      -2.40410602       0.52840883       0.99803951        8 
C      -0.26790519      -0.30994261      -0.39387253        6 
C      -3.19546125       3.73444277      -0.13134746        6 
C      -6.11867936      -0.17308362       0.47343140        6 
C      -6.85528007      -1.22227439      -0.38388216        6 
C      -5.73550653      -2.28620055      -0.56977768        6 
C      -4.57712821      -1.67975194       0.27061815        6 
O      -5.27977690      -0.98183771       1.30774372        8 
H      -5.51660300       0.80136921      -1.39952876        1 
H      -3.82880712      -0.77823415      -1.60443191        1 
H      -2.64875206       3.53541758       0.79167155        1 
H      -6.73499147       0.47489763       1.08961352        1 
H      -7.70362745      -1.63070834       0.16688530        1 
H      -7.22699513      -0.81322336      -1.32581362        1 
H      -6.02632846      -3.25046535      -0.14930977        1 
H      -5.45333805      -2.44611953      -1.61228243        1 
C      -3.60054832      -2.67489674       0.85685388        6 
H      -3.97634031       4.47209441       0.05658679        1 
H      -2.52021324       4.07993169      -0.91139503        1 
H       2.64081959       3.88938144      -1.38317830        1 
H       3.81143132       4.37148042      -0.11566057        1 
H       2.39701117       3.37819254       0.31823329        1 
H      -0.04853110      -0.89536389       0.49856004        1 
H      -0.14849649       0.74219264      -0.15316517        1 
H       0.24561919      -1.77165358      -1.88035813        1 
H       0.28251142      -0.10271810      -2.46098753        1 
H       3.94831106      -3.66200893       1.02733471        1 
H       3.27743790      -3.34415291      -0.58381040        1 
H       2.64342339      -2.48664516       0.83724060        1 
H      -3.05347697      -3.18980837       0.06295947        1 
H      -4.14295646      -3.41922130       1.44337677        1 
H      -2.88457032      -2.18055338       1.51615016        1 
