62
Lattice="0.0 0.0 0.0 0.0 0.0 0.0 0.0 0.0 0.0" Properties=species:S:1:pos:R:3:Z:I:1 pbc="F F F"
C      -4.00169065      -0.06260116       0.80552356        6 
C      -5.44507145       0.43247468       0.46110643        6 
C      -2.89659049       0.47778091      -0.07320307        6 
C      -5.55365272       1.51320807      -0.60128699        6 
O      -1.76068035       0.61764106       0.65823997        8 
O      -2.96418247       0.70318446      -1.25363720        8 
O      -4.87853215       2.61640151      -0.21175195        8 
O      -6.20583749       1.44564361      -1.61026170        8 
C      -4.82530315       3.68891240      -1.17082640        6 
C      -0.56061410       1.01949692      -0.03078235        6 
C      -4.17267137      -1.61913017       0.58457694        6 
C      -5.04078790      -2.16029032       1.75590146        6 
C      -6.46524516      -1.69138901       1.34210714        6 
C      -6.14503750      -0.89001419       0.06540731        6 
O      -5.08273409      -1.65433683      -0.52184756        8 
H      -3.73827255       0.14893811       1.84010366        1 
H      -5.89262853       0.86456172       1.36075491        1 
C      -2.91831818      -2.40735514       0.27927845        6 
H      -4.97239454      -3.24902874       1.79080062        1 
H      -4.71818434      -1.77332183       2.72457019        1 
H      -7.10724842      -2.53972624       1.10102423        1 
H      -6.96639343      -1.09276754       2.10536601        1 
H      -6.95018182      -0.76751788      -0.65296817        1 
C       5.21812493      -0.35270670      -0.85944973        6 
C       4.11620191       0.63527650      -0.35667432        6 
C       4.84218862      -1.82360766      -0.88808992        6 
C       2.90361289      -0.02477801       0.25763520        6 
O       3.74548879      -2.00787097      -1.65580803        8 
O       5.46156997      -2.71828797      -0.37453983        8 
O       1.78349062       0.68797709      -0.02216025        8 
O       2.89816762      -1.01152911       0.94792104        8 
C       0.56582413       0.20322505       0.57408070        6 
C       3.22456444      -3.34963808      -1.69890871        6 
C       6.39238788      -0.03032520       0.09554960        6 
C       7.06254516       1.27745087      -0.36699623        6 
C       5.97080551       2.31504511       0.02634118        6 
C       4.92301911       1.42104540       0.74974304        6 
O       5.73236957       0.37508942       1.30320819        8 
H       5.47260971      -0.09871262      -1.89228910        1 
H       3.77581816       1.30504496      -1.14458594        1 
H       2.91137961      -3.65526610      -0.69939657        1 
H       7.04567398      -0.87405752       0.29686055        1 
H       7.98542782       1.44499112       0.19022106        1 
H       7.30300516       1.27979827      -1.43214425        1 
H       6.35959829       3.06139902       0.72148449        1 
H       5.54553131       2.84569538      -0.82822020        1 
C       4.10794867       2.10460142       1.82537542        6 
H       3.97904067      -4.04251287      -2.07334673        1 
H       2.37195139      -3.30872672      -2.37344643        1 
H      -4.25985070       4.48306162      -0.68794276        1 
H      -5.83081767       4.02967257      -1.42106679        1 
H      -4.31853978       3.34964064      -2.07533737        1 
H       0.61182698       0.32964957       1.65840602        1 
H       0.44350390      -0.85959015       0.35780915        1 
H      -0.41047761       2.08884273       0.13503584        1 
H      -0.66440990       0.83766651      -1.10012109        1 
H      -3.17175652      -3.45842692       0.12729658        1 
H      -2.21031200      -2.33572098       1.10811824        1 
H      -2.43751121      -2.03947747      -0.62917898        1 
H       3.45525358       2.86209073       1.38529520        1 
H       4.77552006       2.59106817       2.53937767        1 
H       3.49632289       1.38235922       2.36892229        1 
