35
Lattice="0.0 0.0 0.0 0.0 0.0 0.0 0.0 0.0 0.0" Properties=species:S:1:pos:R:3:Z:I:1 pbc="F F F"
C       1.01664459       0.63414027      -0.45745978        6 
C      -0.58969541       0.71375468      -0.55330690        6 
C       1.58023190      -0.79691344      -0.38900695        6 
C      -1.30560105      -0.62166049      -0.36218634        6 
O       1.51955754      -1.34596213       0.83839323        8 
O       2.06954650      -1.36819740      -1.33290187        8 
O      -2.56716553      -0.42678876       0.08710743        8 
O      -0.88057460      -1.71511184      -0.64121200        8 
C      -3.38265700      -1.60562639       0.21107961        6 
C       1.87293386      -2.73797720       0.91248779        6 
C       1.28075064       1.51088375       0.83981650        6 
C       0.63333018       0.86130219       2.05619193        6 
C      -0.68958378       0.99502264       1.93191281        6 
C      -0.94609065       1.72169405       0.61993495        6 
C       0.27340908       2.65998891       0.59958848        6 
C       1.73582970       1.27941989      -1.66191186        6 
C      -1.11115728       1.24103733      -1.91043181        6 
H      -3.48378590      -2.10382386      -0.75446349        1 
H       2.90743010      -2.89152260       0.60249661        1 
H      -1.45954682       0.57593752       2.56491582        1 
H      -4.34974028      -1.25290888       0.56326477        1 
H      -2.94282801      -2.30062430       0.92801355        1 
H       1.73839988      -3.01558647       1.95626155        1 
H       1.20871420      -3.31720254       0.26981046        1 
H      -1.93153911       2.16753637       0.49967087        1 
H       2.33243123       1.77680981       0.94588069        1 
H      -0.74089446       2.24558607      -2.11153625        1 
H      -0.81085473       0.59235117      -2.73590760        1 
H      -2.20193885       1.28433892      -1.88796838        1 
H       2.81378610       1.25888416      -1.48721595        1 
H       1.55159084       0.71984550      -2.57725974        1 
H       1.44396693       2.31580830      -1.81755286        1 
H       0.25406614       3.37348488       1.42469087        1 
H       0.41021600       3.20282939      -0.33551352        1 
H       1.16979700       0.31618607       2.81813054        1 
