56
Lattice="0.0 0.0 0.0 0.0 0.0 0.0 0.0 0.0 0.0" Properties=species:S:1:pos:R:3:Z:I:1 pbc="F F F"
C       3.49421002      -0.46185097      -0.22774187        6 
C       4.99694582      -0.26410221      -0.62679575        6 
C       3.08739211       0.18092494       1.08929761        6 
C       5.78289813       0.77586504       0.15446041        6 
O       1.77817387       0.57838704       1.19153840        8 
O       3.83257017       0.41227758       1.99720671        8 
O       5.19691983       1.98364760       0.02448882        8 
O       6.82182813       0.58306652       0.72970275        8 
C       5.77329385       3.05163197       0.80095586        6 
C       0.71209290      -0.21845358       0.66331216        6 
C       3.46463393      -2.02294382      -0.09439888        6 
C       3.60041828      -2.66709365      -1.49515148        6 
C       5.13194780      -2.51085077      -1.74765636        6 
C       5.55000517      -1.70607915      -0.50138060        6 
O       4.72154654      -2.28800029       0.52172698        8 
H       2.83268754      -0.11227853      -1.01955350        1 
H       5.03314881       0.07256936      -1.66696631        1 
H       2.66392390      -2.42008228       0.52611190        1 
H       3.30365562      -3.71613767      -1.46170367        1 
H       2.98477915      -2.16657598      -2.24571599        1 
H       5.63134594      -3.48048312      -1.75269137        1 
H       5.36722937      -2.00069532      -2.68376717        1 
H       6.59293135      -1.75976595      -0.20454705        1 
C      -5.12882495       0.00986728      -0.87223451        6 
C      -3.88940258      -0.62380692      -0.15577964        6 
C      -5.03300074       1.48853691      -1.20800267        6 
C      -2.85701573       0.35663155       0.35440351        6 
O      -3.96529378       1.71405536      -2.00441571        8 
O      -5.82576552       2.33514015      -0.88905461        8 
O      -1.63126071      -0.22888708       0.37792670        8 
O      -3.05696124       1.47728832       0.74239226        8 
C      -0.55880586       0.57415830       0.90765775        6 
C      -3.70508779       3.09300213      -2.32796503        6 
C      -6.27327807      -0.33333973       0.11502099        6 
C      -6.65977501      -1.81505070      -0.06433628        6 
C      -5.42080160      -2.52053377       0.56819003        6 
C      -4.60439543      -1.30265896       1.06103404        6 
O      -5.60812593      -0.34405244       1.39021096        8 
H      -5.27428575      -0.49818943      -1.82974302        1 
H      -3.38409065      -1.35911350      -0.77964966        1 
H      -3.50687560       3.65498915      -1.41422732        1 
H      -7.08362428       0.38915525       0.12884688        1 
H      -7.57000823      -2.03730265       0.49400103        1 
H      -6.82479342      -2.08616357      -1.10902867        1 
H      -5.70532666      -3.14740417       1.41419359        1 
H      -4.86662789      -3.14035681      -0.13984663        1 
H      -3.96262474      -1.48238581       1.92137918        1 
H      -4.55640684       3.53221012      -2.84968287        1 
H      -2.82708349       3.07990068      -2.97023575        1 
H       5.18638262       3.93492394       0.55927836        1 
H       6.82043149       3.19784328       0.53320721        1 
H       5.69428796       2.81687058       1.86317035        1 
H       0.67100377      -1.17965369       1.18421490        1 
H       0.83101846      -0.40233573      -0.40921431        1 
H      -0.71537059       0.75401263       1.97284828        1 
H      -0.52530367       1.53729968       0.39593638        1 
