56
Lattice="0.0 0.0 0.0 0.0 0.0 0.0 0.0 0.0 0.0" Properties=species:S:1:pos:R:3:Z:I:1 pbc="F F F"
C      -2.18339173       0.20774955       0.19517846        6 
C      -3.08599641       0.24301867      -1.08232077        6 
C      -2.78264696      -0.48090568       1.41050694        6 
C      -4.31088513      -0.65324169      -1.09098300        6 
O      -1.94133517      -0.70726921       2.46884777        8 
O      -3.94487811      -0.74140861       1.55290156        8 
O      -3.93348978      -1.94977018      -1.02311819        8 
O      -5.44891570      -0.29090420      -1.24013926        8 
C      -5.00303801      -2.90577694      -0.91336049        6 
C      -0.51429111      -0.71786230       2.31413177        6 
C      -2.06761267       1.74090439       0.48260165        6 
C      -1.18476791       2.39736116      -0.60475687        6 
C      -2.18787654       2.47883889      -1.79642450        6 
C      -3.40963595       1.75355633      -1.19649286        6 
O      -3.38168472       2.20213501       0.17244883        8 
H      -1.21217090      -0.21475374      -0.04722229        1 
H      -2.48273192      -0.08847562      -1.93213423        1 
H      -1.81890582       1.99577362       1.51091268        1 
H      -0.87125507       3.39218966      -0.28307653        1 
H      -0.29459759       1.80621665      -0.82833428        1 
H      -2.44329994       3.51346644      -2.02967918        1 
H      -1.81424753       2.00343702      -2.70536457        1 
H      -4.37948006       1.97205880      -1.63302605        1 
C       3.92597465       0.15488887       0.39683830        6 
C       3.23727623      -1.23828736       0.13442026        6 
C       2.97951804       1.26309356       0.83448669        6 
C       1.73079753      -1.26209659       0.28595666        6 
O       3.30665627       2.45421052       0.31526783        8 
O       2.07443971       1.10467520       1.62072712        8 
O       1.36036496      -1.96296767       1.37862550        8 
O       0.94938508      -0.77450796      -0.49568478        8 
C      -0.05765757      -2.01933138       1.65350119        6 
C       2.49384742       3.57396364       0.72758295        6 
C       4.65198131       0.38486261      -0.95275068        6 
C       5.85499713      -0.57927001      -1.07133394        6 
C       5.13251401      -1.92578838      -1.38222623        6 
C       3.65736449      -1.47803856      -1.34826067        6 
O       3.71161354      -0.15363405      -1.89128196        8 
H       4.63749953       0.05825377       1.22228938        1 
H       3.65177422      -1.99473926       0.79874894        1 
H       2.54367794       3.70016989       1.80963092        1 
H       4.85202384       1.42562064      -1.18429312        1 
H       6.50275319      -0.27492310      -1.89414549        1 
H       6.45781721      -0.61172918      -0.16137430        1 
H       5.39037370      -2.29549624      -2.37549211        1 
H       5.35081373      -2.71374236      -0.65906528        1 
H       2.95820536      -2.07956942      -1.92350090        1 
H       1.45874756       3.41535299       0.42647639        1 
H       2.91492756       4.43678637       0.21744113        1 
H      -4.51985156      -3.87971600      -0.86814994        1 
H      -5.66412516      -2.84483942      -1.77913542        1 
H      -5.57371912      -2.71743344      -0.00277519        1 
H      -0.11823724      -0.64525047       3.32624209        1 
H      -0.15569514       0.14508986       1.75734605        1 
H      -0.18854244      -2.86847996       2.32187238        1 
H      -0.60196917      -2.20338016       0.72551702        1 
