56
Lattice="0.0 0.0 0.0 0.0 0.0 0.0 0.0 0.0 0.0" Properties=species:S:1:pos:R:3:Z:I:1 pbc="F F F"
C       3.69950198      -0.94984337      -0.51170136        6 
C       4.62186014       0.29057398      -0.23284315        6 
C       2.22967410      -0.62089049      -0.63422033        6 
C       3.93764435       1.64709260      -0.27898900        6 
O       1.66753744      -1.28834322      -1.67078839        8 
O       1.61636360       0.13209194       0.08044700        8 
O       3.36962167       1.83681667      -1.49163657        8 
O       3.94166618       2.47194788       0.59646288        8 
C       2.58479811       3.03443399      -1.63998999        6 
C       0.32663059      -0.88930932      -2.02858383        6 
C       3.96729609      -1.78305724       0.78602224        6 
C       5.37897298      -2.40622298       0.70585041        6 
C       6.26941993      -1.16008526       1.00344684        6 
C       5.19726039      -0.06042248       1.15875856        6 
O       4.11333156      -0.77026552       1.78065041        8 
H       4.00624096      -1.49018053      -1.40485107        1 
H       5.40602239       0.32789892      -0.99425238        1 
H       3.16274498      -2.46159924       1.06216831        1 
H       5.49454789      -3.17346097       1.47227275        1 
H       5.58193025      -2.86255008      -0.26501928        1 
H       6.82138221      -1.28192156       1.93625559        1 
H       6.98731174      -0.94423055       0.20973506        1 
H       5.46416937       0.80230280       1.76156126        1 
C      -3.90719054       0.75204826      -0.03243528        6 
C      -4.18908943      -0.53583194      -0.88734671        6 
C      -2.61812549       0.72853382       0.76710276        6 
C      -3.06073552      -1.55088129      -0.90293779        6 
O      -2.03428641       1.94223150       0.76383620        8 
O      -2.18674722      -0.22192096       1.37160659        8 
O      -1.94438475      -0.97171795      -1.41269381        8 
O      -3.13079818      -2.70483962      -0.57788790        8 
C      -0.70566655      -1.68533033      -1.24164135        6 
C      -0.82098662       2.06054920       1.54662358        6 
C      -5.13879120       0.70753540       0.92913927        6 
C      -6.40927995       1.11341676       0.14856735        6 
C      -6.67590781      -0.18399256      -0.67708540        6 
C      -5.48726985      -1.06495372      -0.23462090        6 
O      -5.32223497      -0.69201951       1.14272499        8 
H      -3.91631577       1.65226472      -0.64410020        1 
H      -4.35065734      -0.24658312      -1.92947009        1 
H      -0.06797515       1.35945029       1.19018646        1 
H      -4.98763492       1.21076654       1.88209417        1 
H      -7.22643933       1.31975913       0.84086682        1 
H      -6.25626697       1.99881481      -0.47151453        1 
H      -7.61819366      -0.65027947      -0.38728167        1 
H      -6.69869969      -0.01260794      -1.75537570        1 
H      -5.61932475      -2.14040763      -0.30913924        1 
H      -1.03440686       1.86719588       2.59877663        1 
H      -0.49196422       3.08796099       1.40753353        1 
H       2.22837583       3.02306134      -2.66778411        1 
H       3.19356682       3.91974553      -1.45304217        1 
H       1.74643663       3.01373573      -0.94164978        1 
H       0.24870390      -1.07667988      -3.09898655        1 
H       0.20027618       0.17465655      -1.82757732        1 
H      -0.80591494      -2.70974300      -1.60301695        1 
H      -0.46262843      -1.69925933      -0.17743434        1 
