56
Lattice="0.0 0.0 0.0 0.0 0.0 0.0 0.0 0.0 0.0" Properties=species:S:1:pos:R:3:Z:I:1 pbc="F F F"
C      -3.43416537       0.48561382      -0.22142804        6 
C      -4.84305775       0.20100124      -0.84271861        6 
C      -3.06237522      -0.37579668       0.97336126        6 
C      -5.55108825      -1.06367653      -0.38480704        6 
O      -1.73296475      -0.51164448       1.25811561        8 
O      -3.85269754      -0.90170165       1.70505092        8 
O      -4.80591050      -2.14532196      -0.69648685        8 
O      -6.65164726      -1.11523955       0.09763677        8 
C      -5.30412692      -3.40984105      -0.21791421        6 
C      -0.69944926       0.11487944       0.48796357        6 
C      -3.65133267       1.96330809       0.26068783        6 
C      -3.72290679       2.90329235      -0.96558002        6 
C      -5.16739696       2.61182872      -1.47977897        6 
C      -5.60694841       1.50387006      -0.50146772        6 
O      -4.99500533       1.92642339       0.73034673        8 
H      -2.66220882       0.42803253      -0.98588981        1 
H      -4.72625955       0.09031885      -1.92432076        1 
H      -2.99135601       2.28464068       1.06472717        1 
H      -3.61110856       3.94181118      -0.65150575        1 
H      -2.94754608       2.68880233      -1.70446629        1 
H      -5.80807766       3.48768851      -1.37133316        1 
H      -5.19896672       2.29249382      -2.52328880        1 
H      -6.67383776       1.36881389      -0.35247932        1 
C       4.92964561      -0.05534039      -0.89365416        6 
C       3.89871048       0.83488313      -0.10812617        6 
C       4.73340315      -1.55728517      -0.77572549        6 
C       2.91272946       0.06312231       0.74017516        6 
O       3.47822098      -1.89748364      -1.14490366        8 
O       5.57780022      -2.35355797      -0.46042162        8 
O       1.63830969       0.42460049       0.44078102        8 
O       3.18574318      -0.73915903       1.59415637        8 
C       0.60097271      -0.24126379       1.18493048        6 
C       3.13565970      -3.29014717      -1.00300895        6 
C       6.27224937       0.42532560      -0.29363147        6 
C       6.61398889       1.81888594      -0.86213106        6 
C       5.59114583       2.71302125      -0.09480188        6 
C       4.88211155       1.65807708       0.78549671        6 
O       5.91947977       0.71858499       1.06629808        8 
H       4.86030825       0.17383369      -1.96066466        1 
H       3.34068649       1.47988107      -0.78410968        1 
H       3.21633822      -3.58682809       0.04357235        1 
H       7.06097843      -0.32063554      -0.31715143        1 
H       7.64142175       2.08709858      -0.61331856        1 
H       6.50264608       1.87099003      -1.94732699        1 
H       6.09499042       3.44876001       0.53314839        1 
H       4.89974737       3.24291607      -0.75300508        1 
H       4.45303425       2.02298959       1.71627299        1 
H       3.79654192      -3.91036187      -1.60969086        1 
H       2.10757345      -3.37267111      -1.34904843        1 
H      -4.60312490      -4.15637269      -0.58490184        1 
H      -6.30636387      -3.59804323      -0.60445413        1 
H      -5.32504927      -3.40485576       0.87266059        1 
H      -0.82892890       1.20044878       0.46104523        1 
H      -0.68823762      -0.26793603      -0.53695161        1 
H       0.60164005       0.10532004       2.22051482        1 
H       0.76890166      -1.31905320       1.18229773        1 
