56
Lattice="0.0 0.0 0.0 0.0 0.0 0.0 0.0 0.0 0.0" Properties=species:S:1:pos:R:3:Z:I:1 pbc="F F F"
C      -3.55573276       0.51059200      -0.17135975        6 
C      -5.00637986       0.38379183      -0.73983147        6 
C      -3.10584152      -0.60452648       0.75926190        6 
C      -5.68502540      -0.96868392      -0.59561897        6 
O      -1.78117435      -0.60204765       1.10638801        8 
O      -3.83594485      -1.38174792       1.30412269        8 
O      -4.98253263      -1.90954857      -1.26228478        8 
O      -6.74129081      -1.16873004      -0.05587631        8 
C      -5.45363076      -3.26327214      -1.11809612        6 
C      -0.76962312      -0.08913433       0.22934004        6 
C      -3.71608428       1.81522064       0.68385952        6 
C      -3.89356288       3.03578998      -0.25030532        6 
C      -5.38542597       2.87032952      -0.67795793        6 
C      -5.73498649       1.53346876       0.00306174        6 
O      -5.01306015       1.63114326       1.24484539        8 
H      -2.83345694       0.64877082      -0.97375187        1 
H      -4.97694225       0.57582626      -1.81611596        1 
H      -2.98102669       1.92884563       1.47801255        1 
H      -3.73345725       3.96248237       0.30223467        1 
H      -3.19915835       3.02041590      -1.09352497        1 
H      -6.00288355       3.67160752      -0.27063674        1 
H      -5.52485181       2.84621257      -1.76041156        1 
H      -6.78393890       1.33871319       0.20385751        1 
C       5.23373209      -0.12457956      -0.69677093        6 
C       3.81080422       0.51614468      -0.57259273        6 
C       5.41629041      -1.48535876      -0.04654784        6 
C       2.85816876      -0.17679623       0.37554974        6 
O       4.56297597      -2.37707125      -0.59572144        8 
O       6.24549984      -1.76497105       0.77866939        8 
O       1.57427566       0.05769883      -0.00340937        8 
O       3.14729438      -0.79858624       1.36339339        8 
C       0.55390680      -0.47871852       0.86096355        6 
C       4.54996183      -3.68643975       0.00414787        6 
C       6.12760369       0.97945622      -0.08170352        6 
C       6.29868639       2.11720576      -1.10944362        6 
C       4.88012689       2.76661039      -1.06995165        6 
C       4.19503928       1.91282875       0.02157472        6 
O       5.26676471       1.58061813       0.90192560        8 
H       5.46069819      -0.27271113      -1.75598321        1 
H       3.32018351       0.61761098      -1.53932780        1 
H       4.23224721      -3.60975783       1.04498545        1 
H       7.02819043       0.60831278       0.39775035        1 
H       7.06400180       2.81849219      -0.77476598        1 
H       6.57853099       1.75267498      -2.09991560        1 
H       4.92655677       3.81032962      -0.75650642        1 
H       4.35572118       2.72345115      -2.02692863        1 
H       3.39655794       2.40396970       0.57463903        1 
H       5.54006656      -4.14126598      -0.04415208        1 
H       3.83285062      -4.26433019      -0.57492884        1 
H      -4.79390771      -3.86814787      -1.73655431        1 
H      -6.48649361      -3.34890732      -1.45777043        1 
H      -5.38449312      -3.56562846      -0.07230228        1 
H      -0.83501803       0.99994133       0.13996113        1 
H      -0.86187618      -0.53476078      -0.76560991        1 
H       0.65158676      -0.05734486       1.86337006        1 
H       0.65461555      -1.56289614       0.93195719        1 
