59
Lattice="0.0 0.0 0.0 0.0 0.0 0.0 0.0 0.0 0.0" Properties=species:S:1:pos:R:3:Z:I:1 pbc="F F F"
C       3.82292748      -0.02167169      -0.58181825        6 
C       4.86533254       1.07419327      -0.19434008        6 
C       2.93372226      -0.50110463       0.54308620        6 
C       4.67152468       1.73376617       1.15930655        6 
O       1.71586792      -0.97617323       0.08172236        8 
O       3.21887437      -0.54374100       1.70398781        8 
O       3.43778789       2.28596083       1.23064100        8 
O       5.50192829       1.83021784       2.02371542        8 
C       3.07246088       2.84688707       2.50574235        6 
C       0.62128040      -0.05543267       0.19821085        6 
C       4.79423678      -1.19175077      -1.02281072        6 
C       5.48569638      -0.75639860      -2.34737511        6 
C       6.56885698       0.23563926      -1.83616040        6 
C       6.20405848       0.30815342      -0.34219609        6 
O       5.84066147      -1.05004146      -0.05424011        8 
H       3.18782006       0.28519447      -1.41174944        1 
H       4.80312074       1.88877078      -0.92215932        1 
C       4.22673167      -2.59358938      -1.01142144        6 
H       5.93020465      -1.62529279      -2.83540124        1 
H       4.78157197      -0.30353356      -3.04864062        1 
H       7.57105330      -0.17842134      -1.95529019        1 
H       6.54038351       1.20799609      -2.33223978        1 
H       6.98206906       0.63488580       0.34136860        1 
C      -5.36304688       0.25257987       0.35820183        6 
C      -3.99401875       0.69008076      -0.26509295        6 
C      -5.39507425      -1.11981555       1.00950455        6 
C      -2.94565538      -0.39706332      -0.35347157        6 
O      -4.45040135      -1.19999182       1.97063154        8 
O      -6.18767271      -1.99271600       0.76969770        8 
O      -1.70718706       0.12675728      -0.17114083        8 
O      -3.14010833      -1.55803466      -0.60344786        8 
C      -0.60901003      -0.79993592      -0.28062349        6 
C      -4.30755360      -2.48621535       2.60450751        6 
C      -6.31799208       0.38916639      -0.85406185        6 
C      -6.63591514       1.88220292      -1.07600995        6 
C      -5.27712833       2.39122794      -1.64957055        6 
C      -4.46857563       1.07448711      -1.70686193        6 
O      -5.46408267       0.08893911      -1.97220268        8 
H      -5.63092593       0.95745084       1.15036892        1 
H      -3.56176728       1.54379618       0.25363537        1 
H      -4.04344158      -3.23695692       1.85846784        1 
H      -7.15942803      -0.29687749      -0.83973821        1 
H      -7.43962904       1.99188261      -1.80503271        1 
H      -6.93453126       2.39309846      -0.15862512        1 
H      -5.39496881       2.80379622      -2.65242751        1 
H      -4.80010107       3.14935594      -1.02529428        1 
H      -3.68990927       1.03117929      -2.46619078        1 
H      -5.23546938      -2.77435744       3.10017324        1 
H      -3.50605641      -2.36504569       3.32978099        1 
H       2.07816259       3.26581813       2.36526729        1 
H       3.77844977       3.62364644       2.80157067        1 
H       3.05534620       2.05970968       3.26108049        1 
H      -0.49959658      -1.12333234      -1.31838185        1 
H      -0.79945448      -1.67957478       0.33593192        1 
H       0.80362977       0.83402199      -0.41675458        1 
H       0.50071994       0.25465005       1.24062576        1 
H       5.00830855      -3.30484576      -1.28616470        1 
H       3.40668919      -2.68023282      -1.72763348        1 
H       3.85139850      -2.86237371      -0.02237606        1 
