59
Lattice="0.0 0.0 0.0 0.0 0.0 0.0 0.0 0.0 0.0" Properties=species:S:1:pos:R:3:Z:I:1 pbc="F F F"
C       3.94687914      -0.16993985      -0.67531266        6 
C       5.02839975       0.82426919      -0.14258109        6 
C       2.78227378      -0.41833213       0.25760356        6 
C       4.66260293       1.62236238       1.09592451        6 
O       1.62895266      -0.71208615      -0.43657436        8 
O       2.80887809      -0.37206798       1.45533280        8 
O       3.53495795       2.33589031       0.86910689        8 
O       5.30490067       1.68617486       2.11055846        8 
C       3.00960799       3.05709000       1.99921801        6 
C       0.51531564       0.17590986      -0.23650771        6 
C       4.81544244      -1.48288317      -0.82244438        6 
C       5.81155864      -1.26618399      -1.99687042        6 
C       6.88878345      -0.35375760      -1.34345752        6 
C       6.25314165      -0.10851341       0.03813250        6 
O       5.66036439      -1.38062037       0.33234307        8 
H       3.54345613       0.13511334      -1.63909227        1 
H       5.22232505       1.56956690      -0.91900514        1 
C       4.06399604      -2.79535400      -0.83252843        6 
H       6.23126625      -2.22545499      -2.30393350        1 
H       5.33054649      -0.81723688      -2.86845452        1 
H       7.83684387      -0.88176325      -1.23150959        1 
H       7.07549675       0.56939670      -1.89619169        1 
H       6.92151550       0.18294347       0.84305368        1 
C      -5.28663846       0.39896560       0.57557942        6 
C      -4.15032242       0.79399180      -0.43776142        6 
C      -5.12158991      -0.94718316       1.26186497        6 
C      -3.06962676      -0.24913585      -0.62402367        6 
O      -3.94281463      -0.99667542       1.91886329        8 
O      -5.93726751      -1.83140199       1.27814460        8 
O      -1.84113501       0.28905107      -0.42866539        8 
O      -3.24365469      -1.39836527      -0.93870244        8 
C      -0.73156425      -0.61850386      -0.57321235        6 
C      -3.61370599      -2.26034426       2.52874734        6 
C      -6.53698182       0.45702361      -0.33111938        6 
C      -6.88663564       1.93048622      -0.63553804        6 
C      -5.77243638       2.29783457      -1.66477033        6 
C      -4.99771499       0.96444835      -1.74146236        6 
O      -6.02547926      -0.01302288      -1.58902136        8 
H      -5.32604325       1.14189420       1.37720246        1 
H      -3.67634943       1.72935568      -0.14672366        1 
H      -3.52668243      -3.02836100       1.75878416        1 
H      -7.35123511      -0.18268151      -0.00458083        1 
H      -7.87852358       1.99914208      -1.08359712        1 
H      -6.87327016       2.55955991       0.25688913        1 
H      -6.19714775       2.53967983      -2.64000936        1 
H      -5.14594312       3.13471704      -1.34998231        1 
H      -4.44995242       0.78467618      -2.66417588        1 
H      -4.38029791      -2.54956237       3.24829156        1 
H      -2.65901141      -2.10300429       3.02572480        1 
H       2.11906087       3.56325026       1.63233674        1 
H       3.73835633       3.78039556       2.36709632        1 
H       2.75439073       2.35762177       2.79673984        1 
H      -0.69644458      -1.00309128      -1.59471467        1 
H      -0.85096589      -1.46220006       0.10875535        1 
H       0.62345169       1.04028763      -0.89932372        1 
H       0.48744672       0.51483300       0.80165582        1 
H       4.77272691      -3.62367533      -0.89441566        1 
H       3.39151611      -2.84534982      -1.69216753        1 
H       3.47223880      -2.91906814       0.07643996        1 
