59
Lattice="0.0 0.0 0.0 0.0 0.0 0.0 0.0 0.0 0.0" Properties=species:S:1:pos:R:3:Z:I:1 pbc="F F F"
C      -3.71799352       0.75916340       0.13733198        6 
C      -4.37150507       0.15628350      -1.15296887        6 
C      -2.99893582      -0.24702978       1.02071320        6 
C      -4.11436181      -1.32267294      -1.38389607        6 
O      -1.75851037       0.14522835       1.46241786        8 
O      -3.49404740      -1.25041973       1.44724628        8 
O      -2.78193110      -1.56602434      -1.42807458        8 
O      -4.95220850      -2.16511433      -1.56423088        8 
C      -2.39744221      -2.95259841      -1.52936514        6 
C      -0.75324796       0.43408034       0.47284623        6 
C      -4.99904160       1.33908056       0.86265833        6 
C      -5.43381997       2.60676085       0.07169727        6 
C      -6.09339533       1.98777961      -1.19328873        6 
C      -5.86608965       0.48487591      -0.93019814        6 
O      -6.00478108       0.38804267       0.49224575        8 
H      -3.03720872       1.57083869      -0.11437384        1 
H      -3.97808641       0.67008445      -2.03457826        1 
C      -4.92438121       1.50567540       2.36346399        6 
H      -6.15604780       3.17246000       0.66251968        1 
H      -4.59522542       3.26916499      -0.15336195        1 
H      -7.16117556       2.20661289      -1.23231337        1 
H      -5.64296448       2.32586496      -2.12912368        1 
H      -6.54909336      -0.20635212      -1.41517889        1 
C       5.24027279      -0.21311658      -0.60573432        6 
C       3.76973691       0.30117670      -0.73186793        6 
C       5.50780630      -1.24776726       0.47471201        6 
C       2.84768619      -0.03704770       0.42051313        6 
O       4.78115223      -2.36076606       0.23561961        8 
O       6.30657303      -1.14137339       1.36808315        8 
O       1.55833994       0.16152592       0.04391065        8 
O       3.16369715      -0.38017713       1.52883290        8 
C       0.55676081      -0.06323719       1.05693464        6 
C       4.84645497      -3.38145976       1.24933705        6 
C       6.02052933       1.11206018      -0.41220418        6 
C       6.18252276       1.79818201      -1.78375797        6 
C       4.71674744       2.26024241      -2.05381854        6 
C       4.02530205       1.84374511      -0.73413771        6 
O       5.06237669       1.96632454       0.23944115        8 
H       5.52274303      -0.69386034      -1.54598362        1 
H       3.29191679      -0.02548954      -1.65498441        1 
H       4.46953282      -2.98525995       2.19325811        1 
H       6.91057366       1.02164089       0.20290802        1 
H       6.85620817       2.65184280      -1.69989122        1 
H       6.57313085       1.12735182      -2.55171278        1 
H       4.65504926       3.34088162      -2.18840333        1 
H       4.26671640       1.78397553      -2.92743765        1 
H       3.16496988       2.44263785      -0.44341859        1 
H       5.87229568      -3.72804499       1.38046909        1 
H       4.21157606      -4.18890534       0.89077095        1 
H      -1.31079079      -2.95010947      -1.58311305        1 
H      -2.82604630      -3.40344943      -2.42480390        1 
H      -2.73810431      -3.49367281      -0.64585869        1 
H       0.81738283       0.47459009       1.96948888        1 
H       0.49645927      -1.12842166       1.28853979        1 
H      -0.70416728       1.51134699       0.28168066        1 
H      -0.97757955      -0.08550337      -0.46070987        1 
H      -5.87474554       1.89369973       2.73575593        1 
H      -4.13503120       2.21443706       2.62774233        1 
H      -4.72329193       0.55416554       2.85602194        1 
