59
	Energy:     -24.8957312
C          3.83322       -1.69785        0.05647
C          4.05595       -0.19551       -0.19964
C          2.43689       -2.08893        0.50133
C          2.84884        0.71431       -0.15030
O          2.08618       -3.26360       -0.09870
O          1.73654       -1.48058        1.29432
O          1.89931        0.26297       -1.02358
O          2.78500        1.77221        0.45909
C          0.71785        1.06571       -1.04751
C          0.79323       -3.77957        0.25160
C          4.86914       -1.98788        1.15766
C          6.29576       -1.86347        0.58718
C          6.46521       -0.34752        0.45795
C          5.08686        0.15994        0.88300
O          4.78900       -0.77992        1.94366
H          4.06671       -2.26080       -0.85668
H          4.49780       -0.03085       -1.19180
C          4.67183       -3.23494        1.99661
H          7.04864       -2.25234        1.28252
H          6.41512       -2.38659       -0.36691
H          7.23161       -0.00660        1.16358
H          6.75720       -0.03051       -0.54725
H          5.08892        1.19091        1.24346
C         -3.07219       -5.90423        2.75613
C         -1.78691       -6.72262        2.95265
C         -2.90302       -4.40522        2.64203
C         -0.46807       -5.98284        2.88773
O         -3.50627       -3.96040        1.50176
O         -2.31750       -3.69314        3.44288
O         -0.40046       -5.24897        1.73818
O          0.46703       -6.14499        3.65864
C          0.84116       -4.55150        1.56549
C         -3.40151       -2.54899        1.30473
C         -3.85768       -6.21982        4.03073
C         -4.35769       -7.66595        4.00971
C         -3.06638       -8.45593        4.24673
C         -2.02150       -7.34040        4.33958
O         -2.80043       -6.32312        5.00855
H         -3.61826       -6.25936        1.87304
H         -1.71142       -7.51981        2.20142
H         -2.35213       -2.24975        1.22168
H         -4.61251       -5.48429        4.32035
H         -5.05207       -7.84641        4.83802
H         -4.85941       -7.93365        3.07526
H         -3.13916       -8.99357        5.19907
H         -2.85454       -9.18223        3.45685
H         -1.13270       -7.61442        4.91226
H         -3.89725       -2.01111        2.11875
H         -3.90718       -2.30070        0.36744
H         -0.00459        0.58409       -1.71213
H          0.94219        2.06162       -1.44178
H          0.27551        1.13297       -0.04836
H          0.48526       -4.45043       -0.55858
H          0.03854       -2.98384        0.28029
H          1.67123       -5.26800        1.53939
H          1.00361       -3.86456        2.40402
H          4.68251       -4.13713        1.37750
H          3.73287       -3.19924        2.55844
H          5.46238       -3.32396        2.75035
