56
	Energy:     -32.7421583
C          6.44082       -5.45787        2.46832
C          7.83667       -6.05953        2.24184
C          5.23437       -6.32008        2.15718
C          7.92586       -7.53985        1.95354
O          4.14516       -5.80579        2.80373
O          5.20526       -7.29953        1.42985
O          7.37405       -8.23690        2.99179
O          8.52810       -8.04419        1.01677
C          7.42154       -9.65392        2.81684
C          2.92504       -6.51710        2.56127
C          6.43632       -4.28509        1.48579
C          7.41644       -3.19545        1.92412
C          8.77169       -3.82585        1.59036
C          8.36009       -5.20762        1.07526
O          7.14781       -4.85703        0.36679
H          6.34849       -5.12139        3.50860
H          8.47827       -5.89844        3.11909
H          5.45254       -3.91121        1.19017
H          7.27912       -2.28811        1.32538
H          7.31369       -2.92972        2.98028
H          9.25489       -3.24826        0.79393
H          9.45029       -3.86546        2.44722
H          9.09757       -5.67206        0.41699
C         -3.04226       -5.96103        2.63567
C         -1.78218       -6.68479        3.13425
C         -2.91469       -4.48961        2.31158
C         -0.56551       -5.82954        3.41714
O         -1.90800       -4.30602        1.40617
O         -3.68381       -3.61489        2.68298
O          0.55365       -6.47099        2.97084
O         -0.56401       -4.74661        3.98167
C          1.77211       -5.75250        3.19860
C         -1.72343       -2.94225        1.02218
C         -4.02269       -6.21307        3.79079
C         -4.50521       -7.66617        3.75597
C         -3.25242       -8.42949        4.19772
C         -2.25827       -7.29526        4.45318
O         -3.14796       -6.26820        4.94154
H         -3.42805       -6.42895        1.72015
H         -1.49392       -7.46601        2.41960
H         -1.52908       -2.31612        1.89885
H         -4.82487       -5.48363        3.92273
H         -5.30390       -7.82300        4.48995
H         -4.87419       -7.97674        2.77425
H         -3.46514       -8.97271        5.12532
H         -2.90066       -9.14738        3.45109
H         -1.47584       -7.53467        5.17796
H         -2.59758       -2.58077        0.47185
H         -0.85281       -2.89157        0.36258
H          6.91060      -10.11706        3.66536
H          8.45899      -10.00238        2.80493
H          6.90241       -9.94716        1.89880
H          2.99117       -7.52241        2.99432
H          2.74587       -6.61739        1.48372
H          1.94599       -5.64698        4.27627
H          1.71081       -4.74885        2.75995
