62
	Energy:     -17.6800110
C          6.41001       -5.32352        2.40197
C          7.78645       -6.00930        2.31443
C          5.21500       -6.19357        2.06043
C          7.81742       -7.50694        2.10978
O          4.14236       -5.79409        2.80517
O          5.18485       -7.08624        1.22806
O          7.11596       -8.11721        3.11164
O          8.48184       -8.09323        1.26765
C          7.09935       -9.54231        3.01187
C          2.93107       -6.50877        2.53074
C          6.56421       -4.18080        1.38189
C          7.60278       -3.15704        1.88216
C          8.92602       -3.88806        1.64150
C          8.44392       -5.25265        1.14922
O          7.31483       -4.84069        0.33986
H          6.26240       -4.93309        3.41720
H          8.36622       -5.83571        3.23153
C          5.29971       -3.53164        0.85418
H          7.58672       -2.23521        1.28944
H          7.45285       -2.88598        2.93208
H          9.48607       -3.37399        0.85174
H          9.55739       -3.94156        2.53288
H          9.18633       -5.79725        0.56185
C         -2.99617       -6.03050        2.61118
C         -1.76819       -6.77898        3.16188
C         -2.82635       -4.56835        2.26189
C         -0.55854       -5.91183        3.45007
O         -1.79510       -4.42653        1.37663
O         -3.58084       -3.66786        2.59987
O          0.56506       -6.52497        2.97643
O         -0.56788       -4.84078        4.03719
C          1.77438       -5.79671        3.21925
C         -1.56889       -3.07563        0.97009
C         -4.02176       -6.23592        3.73697
C         -4.57389       -7.66009        3.66731
C         -3.36509       -8.48814        4.11096
C         -2.32871       -7.39999        4.45382
O         -3.19530       -6.34463        4.92177
H         -3.36293       -6.50524        1.69105
H         -1.46653       -7.56253        2.45478
H         -1.36738       -2.43977        1.83806
H         -4.79187       -5.46956        3.84870
H         -5.38758       -7.78964        4.39022
H         -4.94589       -7.93692        2.67678
H         -3.63849       -9.08215        4.99072
H         -3.01364       -9.17552        3.33501
C         -1.33226       -7.83992        5.50806
H         -2.42607       -2.70002        0.40281
H         -0.68957       -3.06100        0.32031
H          6.46670       -9.93020        3.81488
H          8.10883       -9.94505        3.14044
H          6.67368       -9.85756        2.05389
H          1.96153       -5.73864        4.29829
H          1.69106       -4.77469        2.82904
H          3.01818       -7.53511        2.90640
H          2.73988       -6.55232        1.45136
H          5.54060       -2.75221        0.12249
H          4.71819       -3.07775        1.66245
H          4.66868       -4.25026        0.32094
H         -0.65360       -8.60507        5.11907
H         -1.84952       -8.24898        6.38331
H         -0.74137       -6.99783        5.88277
