56
	Energy:     -31.6783633
C          3.79918       -1.56976        0.01058
C          4.14946       -0.07403       -0.01724
C          2.41088       -1.96656        0.47103
C          3.02593        0.91469        0.18759
O          2.12036       -3.20538       -0.02538
O          1.67024       -1.32084        1.19330
O          2.05929        0.70459       -0.75564
O          3.04294        1.85249        0.97168
C          0.94775        1.59442       -0.64065
C          0.83920       -3.74354        0.33782
C          4.80151       -2.11359        1.02993
C          6.22969       -2.04830        0.48471
C          6.54043       -0.55073        0.56947
C          5.21590        0.01880        1.08485
O          4.82976       -1.03882        1.99337
H          3.95555       -2.00233       -0.98573
H          4.60235        0.20235       -0.97925
H          4.54095       -3.06789        1.49517
H          6.91780       -2.60077        1.13426
H          6.31751       -2.44892       -0.52946
H          7.33908       -0.38635        1.30195
H          6.85594       -0.12198       -0.38600
H          5.31587        0.97906        1.59546
C         -2.96496       -6.16615        2.59312
C         -1.62893       -6.63782        3.18653
C         -3.07589       -4.70422        2.21741
C         -0.45497       -5.68519        3.15389
O         -3.84736       -4.58297        1.09731
O         -2.58098       -3.76770        2.82477
O         -0.28900       -5.19381        1.89081
O          0.33795       -5.52122        4.07021
C          0.85712       -4.34277        1.74026
C         -4.03664       -3.23363        0.66733
C         -3.94046       -6.43773        3.73852
C         -4.11959       -7.94174        3.95865
C         -2.79531       -8.33161        4.62345
C         -2.03690       -7.00175        4.62294
O         -3.13239       -6.09410        4.88474
H         -3.21019       -6.76665        1.70807
H         -1.27479       -7.53991        2.66922
H         -3.07622       -2.77430        0.41325
H         -4.87461       -5.87062        3.71382
H         -4.94604       -8.13595        4.65140
H         -4.31195       -8.48926        3.03131
H         -2.98800       -8.66222        5.65059
H         -2.26834       -9.13251        4.09705
H         -1.26136       -6.93403        5.38890
H         -4.55423       -2.65486        1.43858
H         -4.66083       -3.24983       -0.23044
H          0.19798        1.29603       -1.37849
H          1.25871        2.62104       -0.85756
H          0.49801        1.52631        0.35511
H          0.60461       -4.52411       -0.39499
H          0.04794       -2.99049        0.23425
H          1.76957       -4.93432        1.88116
H          0.84096       -3.54413        2.49097
