59
	Energy:     -25.1225060
C          6.41887       -5.35529        2.41457
C          7.80062       -6.02580        2.29751
C          5.22702       -6.23247        2.07996
C          7.84343       -7.52059        2.07538
O          4.16009       -5.84669        2.83985
O          5.19380       -7.11821        1.24044
O          7.16549       -8.14910        3.08219
O          8.49942       -8.09056        1.21563
C          7.16296       -9.57311        2.96763
C          2.94716       -6.55982        2.56748
C          6.54627       -4.19842        1.40663
C          7.58299       -3.17101        1.90320
C          8.90910       -3.88591        1.63191
C          8.43206       -5.24917        1.13102
O          7.28635       -4.83837        0.34478
H          6.28293       -4.97922        3.43685
H          8.39298       -5.85667        3.20726
C          5.26772       -3.55471        0.90669
H          7.54854       -2.24187        1.32274
H          7.44748       -2.91477        2.95879
H          9.45094       -3.35690        0.83937
H          9.55564       -3.94386        2.51209
H          9.17004       -5.77957        0.52539
C         -2.99986       -6.03088        2.63425
C         -1.76093       -6.77318        3.15838
C         -2.83902       -4.56411        2.30357
C         -0.54219       -5.92939        3.46599
O         -1.80892       -4.40499        1.42002
O         -3.60012       -3.67316        2.65199
O          0.57806       -6.55910        3.00619
O         -0.54185       -4.85987        4.05595
C          1.79353       -5.84323        3.25647
C         -1.59281       -3.04830        1.02766
C         -4.00436       -6.25859        3.77391
C         -4.51690       -7.70096        3.73431
C         -3.28557       -8.48958        4.19213
C         -2.27353       -7.37551        4.46714
O         -3.15121       -6.33089        4.93982
H         -3.37806       -6.49735        1.71485
H         -1.46746       -7.55910        2.45123
H         -1.39134       -2.42116        1.90190
H         -4.79256       -5.51166        3.89135
H         -5.32725       -7.83986        4.45914
H         -4.88074       -8.00494        2.74867
H         -3.52272       -9.03243        5.11398
H         -2.93626       -9.21108        3.44779
H         -1.50921       -7.63101        5.20562
H         -2.45469       -2.67148        0.46831
H         -0.71657       -3.02103        0.37411
H          6.55047       -9.97656        3.77861
H          8.17916       -9.96576        3.07236
H          6.72226       -9.88309        2.01475
H          1.97775       -5.79276        4.33639
H          1.72065       -4.81809        2.87208
H          3.03303       -7.58550        2.94501
H          2.75397       -6.60502        1.48853
H          5.49001       -2.76409        0.18109
H          4.69476       -3.11622        1.72941
H          4.63510       -4.27255        0.37430
