68
	Energy:       2.5129480
C          6.40335       -5.20067        2.49580
C          7.77396       -5.91687        2.55326
C          5.22411       -6.06492        2.09010
C          7.72387       -7.43356        2.48765
O          4.12171       -5.68414        2.79922
O          5.23409       -6.94578        1.24452
O          6.88890       -7.89364        3.47178
O          8.41085       -8.15579        1.78328
C          6.77416       -9.31766        3.50757
C          2.93478       -6.42489        2.49046
C          6.65520       -4.09831        1.45371
C          7.62495       -3.05285        2.03047
C          8.96378       -3.78893        1.97823
C          8.55328       -5.17510        1.43884
O          7.51177       -4.78036        0.51122
H          6.17913       -4.77017        3.48066
H          8.26590       -5.70850        3.51449
C          5.44818       -3.47531        0.77946
H          7.68083       -2.15874        1.39867
H          7.35359       -2.73440        3.04193
H          9.62900       -3.26671        1.28004
H          9.46526       -3.83332        2.95000
C         -2.97631       -6.13408        2.50095
C         -1.75483       -6.87481        3.09621
C         -2.72422       -4.70000        2.06516
C         -0.57024       -5.99015        3.43470
O         -1.63240       -4.66817        1.23879
O         -3.44986       -3.74001        2.26986
O          0.57600       -6.55672        2.95816
O         -0.61949       -4.93571        4.04962
C          1.75897       -5.79439        3.22453
C         -1.31973       -3.36434        0.74421
C         -4.04186       -6.37144        3.60087
C         -4.54247       -7.82569        3.48137
C         -3.33451       -8.62415        3.97250
C         -2.34551       -7.51254        4.36410
O         -3.25312       -6.48241        4.81218
H         -3.30777       -6.63753        1.58135
H         -1.41418       -7.64736        2.39461
H         -1.14480       -2.66955        1.57183
H         -5.38978       -8.01527        4.15131
H         -4.84977       -8.09613        2.46642
H         -3.63027       -9.22772        4.83854
H         -2.93364       -9.30063        3.21113
C         -1.37763       -7.93913        5.45056
H         -2.12104       -3.00167        0.09317
H         -0.40088       -3.43794        0.15600
H          6.04218       -9.57840        4.27691
H          7.73406       -9.77091        3.77377
H          6.41570       -9.70030        2.54653
H          1.95469       -5.78344        4.30350
H          1.63380       -4.75772        2.88748
H          3.05780       -7.46806        2.80531
H          2.74187       -6.41094        1.41065
H          5.75941       -2.71697        0.05202
H          4.78437       -3.00140        1.50897
H          4.87874       -4.21497        0.20703
H         -0.66667       -8.68395        5.08021
H         -1.91672       -8.36932        6.30227
H         -0.82176       -7.08711        5.85513
C         -5.18147       -5.38859        3.76901
H         -5.72476       -5.23802        2.83144
H         -4.82741       -4.42532        4.14905
H         -5.89486       -5.74540        4.52118
C          9.69690       -5.87050        0.73054
H         10.20690       -5.18183        0.04663
H          9.33910       -6.68660        0.09531
H         10.43673       -6.25258        1.44017
