59
Lattice="0.0 0.0 0.0 0.0 0.0 0.0 0.0 0.0 0.0" Properties=species:S:1:pos:R:3:Z:I:1 pbc="F F F"
C      -3.83779930      -0.11815774       0.94405592        6 
C      -5.11420215       0.30306395       0.14269757        6 
C      -2.54266373       0.47017130       0.43225827        6 
C      -4.92933161       1.39226159      -0.90023733        6 
O      -1.71073548       0.74302738       1.47188199        8 
O      -2.24316807       0.63460921      -0.72255615        8 
O      -4.44590395       2.51404039      -0.32252286        8 
O      -5.23452880       1.31333318      -2.06150893        8 
C      -4.15086739       3.60248052      -1.21754183        6 
C      -0.42279296       1.30378303       1.14842294        6 
C      -3.86636328      -1.68116461       0.71956911        6 
C      -5.05777479      -2.25014187       1.54196046        6 
C      -6.27589887      -1.86406904       0.65331572        6 
C      -5.57643778      -1.04976172      -0.45113533        6 
O      -4.34650165      -1.76674679      -0.62846323        8 
H      -3.92340016       0.12441653       2.00162108        1 
H      -5.85606062       0.69673010       0.84372318        1 
C      -2.55456991      -2.41748835       0.87365809        6 
H      -4.95632313      -3.33274666       1.63508002        1 
H      -5.10429216      -1.83065979       2.54906377        1 
H      -6.74885829      -2.74916873       0.22541629        1 
H      -7.04031980      -1.29351762       1.18500704        1 
H      -6.09332009      -0.96436278      -1.40233448        1 
C       4.97629386       0.21582962      -0.87607585        6 
C       4.17377749       0.77907672       0.35182443        6 
C       4.31785052      -0.93343208      -1.62000184        6 
C       2.93076641      -0.00615865       0.70868888        6 
O       3.07961767      -0.57448475      -2.02164223        8 
O       4.82953179      -1.99161468      -1.87653980        8 
O       1.87485246       0.82716970       0.88173120        8 
O       2.86027803      -1.19844182       0.85983421        8 
C       0.61704786       0.19688254       1.18803471        6 
C       2.29269227      -1.60119224      -2.65747720        6 
C       6.32378662      -0.16452386      -0.21587810        6 
C       7.13050414       1.12370736       0.05865140        6 
C       6.33819858       1.71996246       1.26278841        6 
C       5.25618703       0.63577903       1.46882013        6 
O       5.92798769      -0.56959220       1.10434593        8 
H       5.10447824       1.01405334      -1.61197518        1 
H       3.88960989       1.81851786       0.20008718        1 
H       2.17000462      -2.44543854      -1.97788859        1 
H       6.84852279      -0.97791893      -0.70812473        1 
H       8.15445840       0.87588638       0.34094319        1 
H       7.16687955       1.78956356      -0.80604055        1 
H       6.96450493       1.80128750       2.15214694        1 
H       5.91216429       2.70379893       1.05636127        1 
H       4.85832559       0.54761898       2.47772814        1 
H       2.77455020      -1.93844103      -3.57604342        1 
H       1.33280239      -1.13792694      -2.87472527        1 
H      -3.80947151       4.41695532      -0.58232336        1 
H      -5.04291558       3.89444306      -1.77287929        1 
H      -3.36821002       3.30378515      -1.91667764        1 
H       0.66500911      -0.27636670       2.17117386        1 
H       0.40040379      -0.57023838       0.44216761        1 
H      -0.22328052       2.05627889       1.91141807        1 
H      -0.45456440       1.76792515       0.16365604        1 
H      -2.70190702      -3.47829891       0.66201845        1 
H      -2.17409781      -2.31656955       1.89292857        1 
H      -1.80632382      -2.03422418       0.17778897        1 
