59
Lattice="0.0 0.0 0.0 0.0 0.0 0.0 0.0 0.0 0.0" Properties=species:S:1:pos:R:3:Z:I:1 pbc="F F F"
C       3.99699926      -0.34557444      -0.69909408        6 
C       4.44370070       1.05591760      -0.16040839        6 
C       2.64331934      -0.80453179      -0.20420812        6 
C       3.41619508       1.82289787       0.65749529        6 
O       1.97720977      -1.43055106      -1.20224312        8 
O       2.23335216      -0.69202046       0.92283680        8 
O       2.29002321       2.01515145      -0.06669470        8 
O       3.58768185       2.26678215       1.76210737        8 
C       1.19066034       2.63891537       0.62961528        6 
C       0.57561133      -1.77771188      -1.10565492        6 
C       5.14869912      -1.25646006      -0.12475254        6 
C       6.43277291      -0.94723479      -0.94573668        6 
C       6.86905897       0.42248489      -0.35140107        6 
C       5.71765248       0.68967601       0.63762326        6 
O       5.42315757      -0.62348383       1.13256308        8 
H       3.98649537      -0.37481505      -1.78645984        1 
H       4.68217472       1.70301589      -1.00936921        1 
C       4.82604514      -2.72246465       0.06205811        6 
H       7.18072698      -1.72043896      -0.76304604        1 
H       6.23940860      -0.91280165      -2.01973646        1 
H       7.81368405       0.33728263       0.18765952        1 
H       6.97664739       1.20928283      -1.10107203        1 
H       5.92949400       1.35722284       1.46757111        1 
C      -5.06688738       0.17357747      -0.47532015        6 
C      -3.93776022      -0.90879105      -0.41479398        6 
C      -4.62028880       1.62504651      -0.42712485        6 
C      -2.55875802      -0.41039288      -0.03806880        6 
O      -3.82784982       1.89833685      -1.48776365        8 
O      -4.97728174       2.44679371       0.37552039        8 
O      -1.62448147      -1.30087640      -0.45293016        8 
O      -2.29852460       0.58896600       0.58055552        8 
C      -0.25386902      -1.02503389      -0.06794128        6 
C      -3.25277215       3.21674519      -1.51514690        6 
C      -5.96524604      -0.24476313       0.71725732        6 
C      -6.81764224      -1.45986923       0.29979616        6 
C      -5.73211138      -2.57959104       0.25479709        6 
C      -4.48650802      -1.80370604       0.74416300        6 
O      -5.02938930      -0.83270698       1.63783486        8 
H      -5.60158032       0.06626886      -1.42318518        1 
H      -3.85415618      -1.47160292      -1.34361882        1 
H      -2.63409947       3.36743921      -0.62907336        1 
H      -6.48351239       0.57992230       1.19693904        1 
H      -7.56928067      -1.66992283       1.06157324        1 
H      -7.32877193      -1.31419435      -0.65402815        1 
H      -5.96679283      -3.39337260       0.94200915        1 
H      -5.59214669      -3.00683653      -0.74025152        1 
H      -3.73076978      -2.39892813       1.25235332        1 
H      -4.03403532       3.97750171      -1.54721565        1 
H      -2.64734384       3.25161519      -2.41857200        1 
H       0.38012932       2.69350933      -0.09372887        1 
H       1.47045692       3.63598503       0.97138524        1 
H       0.89710759       2.02764101       1.48352647        1 
H      -0.09493334      -1.36828842       0.95032720        1 
H      -0.07939428       0.04834039      -0.10603928        1 
H       0.51812048      -2.85487537      -0.92871805        1 
H       0.17366777      -1.56820852      -2.09682122        1 
H       5.69445262      -3.24303850       0.47086964        1 
H       4.56543923      -3.18044303      -0.89549470        1 
H       3.99265288      -2.85458146       0.75417019        1 
