59
Lattice="0.0 0.0 0.0 0.0 0.0 0.0 0.0 0.0 0.0" Properties=species:S:1:pos:R:3:Z:I:1 pbc="F F F"
C       4.05415576      -0.53518783      -0.15421821        6 
C       4.77589163       0.60494792      -0.94682966        6 
C       2.78116881      -0.11446326       0.54270091        6 
C       4.00737649       1.90737408      -1.09213916        6 
O       1.87426499      -1.12755749       0.49924468        8 
O       2.58665016       0.93401855       1.10078976        8 
O       2.82181773       1.67504312      -1.69881111        8 
O       4.40629701       3.00074980      -0.78837482        8 
C       1.93447437       2.80365411      -1.81238931        6 
C       0.61115517      -0.92082369       1.16178854        6 
C       5.16569300      -0.89488101       0.90513699        6 
C       6.31666935      -1.61367059       0.14628689        6 
C       7.03215788      -0.42316566      -0.55487983        6 
C       6.10269189       0.74114910      -0.16152673        6 
O       5.72704160       0.39543429       1.17940250        8 
H       3.82639706      -1.39177401      -0.78594433        1 
H       4.95784722       0.26199781      -1.96939669        1 
C       4.69694696      -1.56720406       2.17612716        6 
H       6.97412235      -2.11046630       0.86151251        1 
H       5.94353412      -2.36905043      -0.54851520        1 
H       8.02929396      -0.26346504      -0.14249620        1 
H       7.12668611      -0.54568306      -1.63580812        1 
H       6.52888697       1.73991668      -0.17890139        1 
C      -5.40167160      -0.50643786       0.17521680        6 
C      -4.02216162      -0.21508610       0.85153835        6 
C      -5.36824069      -1.30767090      -1.11449244        6 
C      -2.80257727      -0.47376662      -0.00637636        6 
O      -4.80328533      -2.51452087      -0.89213544        8 
O      -5.84599763      -0.97046414      -2.16604914        8 
O      -1.70877902      -0.63025905       0.78002747        8 
O      -2.75554643      -0.48886548      -1.20894118        8 
C      -0.45540554      -0.79472944       0.08800183        6 
C      -4.62183403      -3.34679153      -2.05266395        6 
C      -5.98432647       0.92202010       0.01399810        6 
C      -6.54289333       1.38693952       1.37339251        6 
C      -5.22127309       1.59575471       2.17476791        6 
C      -4.16136803       1.32519441       1.08011364        6 
O      -4.80827266       1.74148180      -0.12182598        8 
H      -6.00917065      -1.09837825       0.86596501        1 
H      -3.89772043      -0.74897983       1.79271506        1 
H      -3.95361154      -2.85263671      -2.75939922        1 
H      -6.62365863       1.04802743      -0.85431375        1 
H      -7.08546852       2.32569748       1.25457611        1 
H      -7.21522709       0.65776296       1.82965092        1 
H      -5.13214676       2.61805801       2.54416920        1 
H      -5.12244591       0.91906740       3.02592849        1 
H      -3.21698506       1.85237046       1.19894705        1 
H      -5.57912790      -3.54877365      -2.53506124        1 
H      -4.17721666      -4.26840532      -1.68304830        1 
H       1.05272888       2.42949293      -2.32835269        1 
H       2.40254159       3.60543435      -2.38465549        1 
H       1.67420350       3.16826480      -0.81753286        1 
H      -0.26841602       0.07139035      -0.55092067        1 
H      -0.49664790      -1.68522154      -0.54243717        1 
H       0.65647218      -0.02712775       1.78277049        1 
H       0.43674175      -1.79835033       1.78593254        1 
H       5.54841299      -1.74919781       2.83512829        1 
H       4.22299942      -2.52500062       1.94785775        1 
H       3.98143784      -0.93912679       2.71047395        1 
