29
Lattice="0.0 0.0 0.0 0.0 0.0 0.0 0.0 0.0 0.0" Properties=species:S:1:pos:R:3:Z:I:1 pbc="F F F"
C      -0.50643274       0.39384753      -0.75795388        6 
C      -0.11470935      -1.04679487      -0.29614667        6 
C       0.28694092       1.51212413      -0.07514220        6 
C       1.31293701      -1.32025511       0.13534121        6 
O      -0.43191842       2.65329698      -0.03441937        8 
O       1.43030039       1.44887153       0.30024959        8 
O       2.16957772      -0.97471122      -0.84362377        8 
O       1.63120011      -1.93749605       1.12206564        8 
C       3.56700469      -1.13671348      -0.54692149        6 
C       0.22953507       3.79663612       0.53954433        6 
C      -1.96712446       0.41519769      -0.22497419        6 
C      -2.83983576      -0.67813479      -0.89038400        6 
C      -2.42694449      -1.94752742      -0.08254608        6 
C      -1.24063895      -1.38222475       0.71755895        6 
O      -1.74862647      -0.09086506       1.10542339        8 
H      -0.42070782       0.52994522      -1.83788121        1 
H      -0.22049115      -1.69711355      -1.17174747        1 
H       3.84560808      -0.47980744       0.27844912        1 
H       1.12553266       4.04482504      -0.03132489        1 
H      -2.41216856       1.40274688      -0.17555969        1 
H      -3.89905515      -0.44881465      -0.76979608        1 
H      -2.63828240      -0.76931306      -1.96049140        1 
H      -3.22217044      -2.26167150       0.59536304        1 
H      -2.15510034      -2.79633832      -0.71313754        1 
H      -0.91418978      -1.93690552       1.59205286        1 
H       3.78929990      -2.17192138      -0.28419212        1 
H       4.09181500      -0.84854847      -1.45513033        1 
H       0.50573006       3.59302013       1.57472563        1 
H      -0.49626790       4.60511534       0.48772339        1 
