29
Lattice="0.0 0.0 0.0 0.0 0.0 0.0 0.0 0.0 0.0" Properties=species:S:1:pos:R:3:Z:I:1 pbc="F F F"
C       0.35408058       0.91951477       0.44855265        6 
C       0.67648288      -0.59462269       0.74569216        6 
C      -0.99200839       1.27865979      -0.15876773        6 
C      -0.36307575      -1.68503599       0.57186643        6 
O      -1.77983426       1.85112359       0.78950708        8 
O      -1.35583622       1.08957134      -1.28809224        8 
O      -1.07446601      -1.57027252      -0.55226471        8 
O      -0.46700418      -2.61116348       1.34519347        8 
C      -2.02048104      -2.61742921      -0.83329726        6 
C      -3.10596366       2.21708857       0.36620744        6 
C       1.49906097       1.24840696      -0.56059743        6 
C       2.84590927       1.33121624       0.19103658        6 
C       3.14987627      -0.17979418       0.43208660        6 
C       1.90066750      -0.82635235      -0.20438637        6 
O       1.62265994       0.03320367      -1.30762490        8 
H       0.45336693       1.49176300       1.37005411        1 
H       0.98874531      -0.69064128       1.78471430        1 
H      -1.50739474      -3.57460636      -0.93935465        1 
H      -3.64637995       1.34119176       0.00351367        1 
H       1.28037921       2.06965263      -1.23855492        1 
H       3.60353769       1.79203057      -0.44433323        1 
H       2.77975278       1.91182945       1.11315525        1 
H       4.04843815      -0.49408829      -0.10048383        1 
H       3.26809122      -0.43794938       1.48569000        1 
H       2.01773721      -1.85129796      -0.54965536        1 
H      -2.75716050      -2.69259134      -0.03178686        1 
H      -2.49399244      -2.32763285      -1.76819407        1 
H      -3.06195297       2.96294539      -0.42921268        1 
H      -3.59013350       2.62775830       1.24957070        1 
