29
Lattice="0.0 0.0 0.0 0.0 0.0 0.0 0.0 0.0 0.0" Properties=species:S:1:pos:R:3:Z:I:1 pbc="F F F"
C      -0.39888882      -0.78428214       0.62883926        6 
C      -0.79981430       0.72031669       0.76362916        6 
C       1.09093339      -1.06923522       0.67160167        6 
C       0.18517162       1.78741082       0.31342383        6 
O       1.49848513      -1.86800607      -0.33185496        8 
O       1.81732675      -0.67051408       1.54900042        8 
O       1.17837620       1.31504140      -0.45245809        8 
O       0.01329305       2.96243099       0.53877728        8 
C       2.09787193       2.28630675      -0.98160576        6 
C       2.89999589      -2.19691015      -0.34422440        6 
C      -1.23655142      -1.23325259      -0.60392456        6 
C      -2.66421933      -1.54985689      -0.11620370        6 
C      -3.16286805      -0.11824662       0.25118297        6 
C      -1.98671418       0.75213236      -0.25257921        6 
O      -1.44482642      -0.01337918      -1.33748912        8 
H      -0.76903818      -1.30157207       1.52030958        1 
H      -1.11458470       0.98538449       1.77179637        1 
H       1.56719530       3.01459916      -1.59603221        1 
H       3.17388432      -2.73768603       0.56281869        1 
H      -0.76221597      -1.97216205      -1.24090703        1 
H      -3.25102761      -1.97546525      -0.93149258        1 
H      -2.68665065      -2.24712406       0.72381054        1 
H      -4.08048116       0.13689515      -0.27994387        1 
H      -3.34410892       0.01360282       1.31989489        1 
H      -2.25115335       1.75095704      -0.59093332        1 
H       2.61274831       2.80077753      -0.16912422        1 
H       2.80264512       1.71745804      -1.58380516        1 
H       3.49952327      -1.28843186      -0.41518174        1 
H       3.04309517      -2.82173501      -1.22303939        1 
