29
Lattice="0.0 0.0 0.0 0.0 0.0 0.0 0.0 0.0 0.0" Properties=species:S:1:pos:R:3:Z:I:1 pbc="F F F"
C      -0.79229030      -0.38265299      -0.67203189        6 
C       0.75701375      -0.48544205      -0.59002967        6 
C      -1.38852010       0.83242294       0.01915066        6 
C       1.49790233       0.83756238      -0.54657650        6 
O      -2.69442603       0.94698744      -0.31834640        8 
O      -0.83015601       1.57719225       0.78094453        8 
O       2.56451681       0.79561435       0.27320374        8 
O       1.19765318       1.79616306      -1.21313388        8 
C       3.32620658       2.01473034       0.37365273        6 
C      -3.41163984       2.03063245       0.30205411        6 
C      -1.16665741      -1.62334019       0.20229310        6 
C      -0.69760775      -2.93590226      -0.47203224        6 
C       0.82109242      -2.94027243      -0.11110334        6 
C       0.95763206      -1.54584350       0.53246300        6 
O      -0.25718837      -1.46763770       1.29899194        8 
H      -1.18280183      -0.44917420      -1.68603526        1 
H       1.10327086      -0.91640758      -1.53677432        1 
H       3.72683121       2.29658298      -0.60125199        1 
H      -2.94885483       2.98548995       0.04901914        1 
H      -2.19212975      -1.62141890       0.56438615        1 
H      -1.21617692      -3.79313107      -0.04089578        1 
H      -0.88434408      -2.93644411      -1.54808146        1 
H       1.04892641      -3.71352058       0.62383682        1 
H       1.47278067      -3.08157493      -0.97575152        1 
H       1.81513613      -1.38267099       1.17686763        1 
H       2.69397885       2.81894919       0.75162621        1 
H       4.13062697       1.79590747       1.07225843        1 
H      -3.42001019       1.91112043       1.38671517        1 
H      -4.42197692       1.97579769      -0.09756113        1 
