29
Lattice="0.0 0.0 0.0 0.0 0.0 0.0 0.0 0.0 0.0" Properties=species:S:1:pos:R:3:Z:I:1 pbc="F F F"
C      -0.60195112       0.61683176      -0.78995130        6 
C      -0.56171444      -0.91502008      -0.44923832        6 
C       0.63634671       1.43430292      -0.47858854        6 
C       0.76339747      -1.49414290       0.01228622        6 
O       1.06520889       1.25131815       0.78303416        8 
O       1.14741665       2.20495054      -1.25559139        8 
O       1.76859393      -1.07859318      -0.78507637        8 
O       0.90098304      -2.30142564       0.89638617        8 
C       3.08026616      -1.58091745      -0.47292470        6 
C       2.23378536       1.99298091       1.17136870        6 
C      -1.81191997       1.04888810       0.10227324        6 
C      -3.12469850       0.52652491      -0.52663436        6 
C      -3.05903279      -0.98444082      -0.14302714        6 
C      -1.70183291      -1.04141589       0.59079750        6 
O      -1.66168927       0.22717267       1.26270439        8 
H      -0.80473039       0.78435723      -1.84606725        1 
H      -0.80259996      -1.48033390      -1.35506249        1 
H       3.35685573      -1.30693278       0.54647075        1 
H       2.04977084       3.06567569       1.09604526        1 
H      -1.81219555       2.09867251       0.38832021        1 
H      -3.98301564       1.01807073      -0.06658287        1 
H      -3.17243351       0.69894600      -1.60346743        1 
H      -3.86646735      -1.25693527       0.53750823        1 
H      -3.10040543      -1.65153408      -1.00638107        1 
H      -1.56303298      -1.84632882       1.30622840        1 
H       3.10707169      -2.66707941      -0.57247307        1 
H       3.74748334      -1.11233765      -1.19273094        1 
H       3.07948939       1.73004634       0.53328809        1 
H       2.42590495       1.70794240       2.20320947        1 
