29
Lattice="0.0 0.0 0.0 0.0 0.0 0.0 0.0 0.0 0.0" Properties=species:S:1:pos:R:3:Z:I:1 pbc="F F F"
C      -0.80828940      -0.15731972      -0.81653331        6 
C       0.63266540      -0.68059109      -0.51624049        6 
C      -1.12215691       1.21461163      -0.20473616        6 
C       1.75837366       0.33695638      -0.53592784        6 
O      -2.43295597       1.31055718       0.11085483        8 
O      -0.36062314       2.14085877      -0.10472174        8 
O       2.54109614       0.26122570       0.55970460        8 
O       1.94362845       1.10733425      -1.44222025        8 
C       3.62096764       1.21374404       0.61843167        6 
C      -2.86126124       2.57748791       0.64274276        6 
C      -1.60197032      -1.23918162      -0.03233633        6 
C      -1.32617921      -2.67074158      -0.55566414        6 
C       0.03206432      -3.00626059       0.13473351        6 
C       0.38870880      -1.62121501       0.70185958        6 
O      -0.88554184      -1.19453070       1.21970470        8 
H      -1.02527099      -0.11040653      -1.88500222        1 
H       0.90010834      -1.31097205      -1.37266658        1 
H       4.30679366       1.06355803      -0.21665172        1 
H      -2.68096967       3.37569510      -0.07873572        1 
H      -2.64546353      -0.99742224       0.13310703        1 
H      -2.11781333      -3.35172422      -0.24159213        1 
H      -1.27050633      -2.70637946      -1.64634685        1 
H      -0.10415073      -3.72052277       0.94822722        1 
H       0.78513671      -3.39998130      -0.55110591        1 
H       1.14068201      -1.58171589       1.48306295        1 
H       3.22468796       2.22909385       0.58241853        1 
H       4.12124402       1.02624990       1.56598843        1 
H      -2.32611652       2.79927407       1.56698492        1 
H      -3.92613441       2.46464515       0.83439237        1 
