29
Lattice="0.0 0.0 0.0 0.0 0.0 0.0 0.0 0.0 0.0" Properties=species:S:1:pos:R:3:Z:I:1 pbc="F F F"
C      -0.70609699       0.59961037      -0.70203617        6 
C      -0.32032362      -0.90691117      -0.45494915        6 
C       0.27843666       1.74166859      -0.53605250        6 
C       1.02696812      -1.24602328       0.16433271        6 
O       1.14179314       1.58069094       0.46885521        8 
O       0.22427601       2.73611880      -1.22516043        8 
O       1.81634422      -1.83724907      -0.77171069        8 
O       1.38564489      -1.04178734       1.29225580        8 
C       3.13598521      -2.20900205      -0.33528492        6 
C       2.04398680       2.67119096       0.72854371        6 
C      -1.93018853       0.75896209       0.26373445        6 
C      -3.16404181       0.10349577      -0.39188374        6 
C      -2.80482706      -1.40575544      -0.23232126        6 
C      -1.46356411      -1.31570764       0.53013797        6 
O      -1.62388640      -0.13847793       1.32934936        8 
H      -1.04538978       0.70435438      -1.73224367        1 
H      -0.38830373      -1.45273181      -1.39490448        1 
H       3.68009586      -1.33389869       0.02354932        1 
H       1.48576200       3.56817713       1.00095461        1 
H      -2.07370565       1.76509963       0.65115032        1 
H      -4.06467537       0.35816818       0.16870671        1 
H      -3.30701997       0.41195562      -1.42868631        1 
H      -3.54711506      -1.93020081       0.37078376        1 
H      -2.71176725      -1.93068359      -1.18498493        1 
H      -1.22585357      -2.16011221       1.17254639        1 
H       3.08014843      -2.94726740       0.46650266        1 
H       3.62349409      -2.63173790      -1.21115652        1 
H       2.65293266       2.88086545      -0.15212247        1 
H       2.66237220       2.33612134       1.55783084        1 
