29
Lattice="0.0 0.0 0.0 0.0 0.0 0.0 0.0 0.0 0.0" Properties=species:S:1:pos:R:3:Z:I:1 pbc="F F F"
C      -0.43347767      -0.90363409       0.44708782        6 
C      -0.68757403       0.63048646       0.69023430        6 
C       0.91289263      -1.32803165      -0.11693099        6 
C       0.36251205       1.68163861       0.37499154        6 
O       1.79260436      -1.52652439       0.89240314        8 
O       1.18249994      -1.48899040      -1.27821763        8 
O       1.41095339       1.23031123      -0.32067404        8 
O       0.22881795       2.83441341       0.71578046        8 
C       2.40227227       2.20101627      -0.70483416        6 
C       3.13162237      -1.86850488       0.49545665        6 
C      -1.58318238      -1.22674108      -0.55144876        6 
C      -2.92393631      -1.29110666       0.20823308        6 
C      -3.18443251       0.22158995       0.48283364        6 
C      -1.95352199       0.85831221      -0.19859917        6 
O      -1.70688406      -0.01030127      -1.30488162        8 
H      -0.55961657      -1.43503992       1.39154294        1 
H      -0.93405699       0.80416184       1.73865282        1 
H       1.94316162       2.99777018      -1.29078833        1 
H       3.55985285      -1.06885030      -0.11126285        1 
H      -1.37060831      -2.05023864      -1.22718392        1 
H      -3.69794956      -1.71578504      -0.43269209        1 
H      -2.86779474      -1.89396852       1.11672167        1 
H      -4.10038259       0.56249685      -0.00133489        1 
H      -3.24958033       0.46758121       1.54420630        1 
H      -2.07652257       1.88309573      -0.53991877        1 
H       2.87676862       2.62894260       0.17955622        1 
H       3.12283931       1.65046012      -1.30502278        1 
H       3.13630043      -2.79560741      -0.07979142        1 
H       3.68958784      -1.98835815       1.42155027        1 
