29
Lattice="0.0 0.0 0.0 0.0 0.0 0.0 0.0 0.0 0.0" Properties=species:S:1:pos:R:3:Z:I:1 pbc="F F F"
C       0.69126865      -0.76999600      -0.61041214        6 
C       0.41432051       0.77219013      -0.47496432        6 
C      -0.40142217      -1.69933493      -0.10788674        6 
C      -0.89510198       1.14185358       0.19015179        6 
O      -1.59382198      -1.36424221      -0.64525304        8 
O      -0.23275642      -2.65691644       0.60174557        8 
O      -1.63743991       1.92690146      -0.62298772        8 
O      -1.23279643       0.83446980       1.30578254        8 
C      -2.90862195       2.34776589      -0.09669163        6 
C      -2.73137949      -2.11708852      -0.18358807        6 
C       2.01090033      -0.91456318       0.18152773        6 
C       3.17483974      -0.31099936      -0.63464175        6 
C       2.90243130       1.21568430      -0.46361798        6 
C       1.63134090       1.18807011       0.41267217        6 
O       1.83705598       0.04019969       1.23912914        8 
H       0.82464907      -1.02092005      -1.66675807        1 
H       0.44651014       1.25809745      -1.44834082        1 
H      -3.53713469       1.48038567       0.11237511        1 
H      -2.86523752      -1.96284709       0.88812935        1 
H       2.16939221      -1.90374321       0.60044972        1 
H       4.13052957      -0.59551292      -0.19326707        1 
H       3.17238357      -0.63590874      -1.67720953        1 
H       3.71620022       1.70751842       0.07094622        1 
H       2.75197977       1.73806099      -1.41066160        1 
H       1.46070438       2.06250760       1.03664144        1 
H      -2.77335499       2.92097404       0.82180017        1 
H      -3.35468270       2.96543037      -0.87309452        1 
H      -2.59626695      -3.18012294      -0.38612914        1 
H      -3.58222759      -1.72547602      -0.73692868        1 
