29
Lattice="0.0 0.0 0.0 0.0 0.0 0.0 0.0 0.0 0.0" Properties=species:S:1:pos:R:3:Z:I:1 pbc="F F F"
C       0.25512763       0.82556955       0.66529795        6 
C       0.79016008      -0.64962322       0.70460570        6 
C      -1.19759577       1.01179052       0.25921128        6 
C      -0.24481619      -1.75740587       0.57937194        6 
O      -1.45558867       2.32293461       0.05821529        8 
O      -2.03781897       0.15452933       0.16033100        8 
O      -0.48585221      -2.09248675      -0.69850197        8 
O      -0.73066897      -2.31971923       1.53096755        8 
C      -1.54552732      -3.04099421      -0.90986030        6 
C      -2.81135858       2.65054962      -0.30451410        6 
C       1.23044785       1.45444056      -0.36974467        6 
C       2.65292460       1.54786588       0.22913899        6 
C       3.13059877       0.06826667       0.10985443        6 
C       1.85376478      -0.60149419      -0.43418907        6 
O       1.34325588       0.39917221      -1.33152080        8 
H       0.35515666       1.30344646       1.64326117        1 
H       1.26323970      -0.82660047       1.67062104        1 
H      -1.33881116      -3.97465008      -0.38467373        1 
H      -3.50258042       2.32893045       0.47578126        1 
H       0.85731842       2.35668703      -0.84478792        1 
H       3.27260662       2.21867898      -0.36727730        1 
H       2.64755139       1.91845374       1.25644266        1 
H       3.94180219      -0.02849130      -0.61313502        1 
H       3.46325680      -0.35824468       1.05798801        1 
H       1.98940364      -1.53638305      -0.96955359        1 
H      -2.48724464      -2.62056591      -0.55425798        1 
H      -1.57908855      -3.20252817      -1.98522905        1 
H      -3.07916414       2.16635348      -1.24455393        1 
H      -2.82829758       3.73277899      -0.41156956        1 
