29
Lattice="0.0 0.0 0.0 0.0 0.0 0.0 0.0 0.0 0.0" Properties=species:S:1:pos:R:3:Z:I:1 pbc="F F F"
C       0.56505389       0.98626558       0.57939775        6 
C       0.60741023      -0.58708409       0.71865541        6 
C      -0.65262799       1.62169695      -0.09148331        6 
C      -0.71454294      -1.32868931       0.66159049        6 
O      -1.80389215       1.16532072       0.42598259        8 
O      -0.59841454       2.47038028      -0.94674062        8 
O      -0.96305268      -1.83616200      -0.56276817        8 
O      -1.47099146      -1.43396606       1.59432976        8 
C      -2.22164666      -2.51541983      -0.72087732        6 
C      -3.01858185       1.70923698      -0.12219801        6 
C       1.80451519       1.20060404      -0.32121588        6 
C       3.10551361       0.81929517       0.42086096        6 
C       3.07841359      -0.73629445       0.31619041        6 
C       1.69765390      -0.94758949      -0.33460363        6 
O       1.63835213       0.13499780      -1.27289767        8 
H       0.65890158       1.45390418       1.56268425        1 
H       0.97549961      -0.80889352       1.72251826        1 
H      -2.29060611      -3.35809574      -0.03151464        1 
H      -3.07079875       1.51614235      -1.19477759        1 
H       1.80631849       2.15503776      -0.83765303        1 
H       3.97192362       1.24053003      -0.08997452        1 
H       3.11682920       1.17946977       1.45219061        1 
H       3.86349141      -1.10177466      -0.34764568        1 
H       3.18213523      -1.24048363       1.27924068        1 
H       1.54249919      -1.89069299      -0.85017242        1 
H      -3.04790003      -1.82880707      -0.52995668        1 
H      -2.23807853      -2.85914815      -1.75273206        1 
H      -3.06730044       2.78516080       0.05168223        1 
H      -3.82233626       1.19843349       0.40328738        1 
