29
Lattice="0.0 0.0 0.0 0.0 0.0 0.0 0.0 0.0 0.0" Properties=species:S:1:pos:R:3:Z:I:1 pbc="F F F"
C       0.45358518      -0.75885907      -0.61546492        6 
C       0.75811602       0.77053376      -0.75505066        6 
C      -1.00477533      -1.16949059      -0.67177287        6 
C      -0.25332077       1.78716264      -0.23364571        6 
O      -1.41530271      -1.81102961       0.43841245        8 
O      -1.70400266      -0.98956726      -1.63875404        8 
O      -1.40915174       1.25258339       0.18014680        8 
O       0.00716337       2.96357808      -0.14246304        8 
C      -2.37334629       2.16062940       0.74396404        6 
C      -2.79283285      -2.22650575       0.44802046        6 
C       1.31882815      -1.14200171       0.62267193        6 
C       2.74905046      -1.41807373       0.12294583        6 
C       3.17082738       0.01704760      -0.31815952        6 
C       1.98321389       0.86153418       0.20050552        6 
O       1.49257376       0.10431627       1.32098056        8 
H       0.86812716      -1.24378537      -1.50468571        1 
H       0.99850056       1.05375386      -1.78053159        1 
H      -1.94937254       2.67185580       1.60889934        1 
H      -2.98982352      -2.92119021      -0.36984726        1 
H       0.87696031      -1.87887850       1.28503549        1 
H       3.36948260      -1.77616330       0.94580524        1 
H       2.78876470      -2.15172859      -0.68496755        1 
H       4.09977850       0.32984478       0.15920518        1 
H       3.30035081       0.11233403      -1.39862741        1 
H       2.22039015       1.87588689       0.50722979        1 
H      -2.68147034       2.89613733      -0.00018584        1 
H      -3.21565163       1.53878857       1.03875128        1 
H      -3.44776733      -1.35991408       0.34675068        1 
H      -2.94324978      -2.71182760       1.40987966        1 
