29
Lattice="0.0 0.0 0.0 0.0 0.0 0.0 0.0 0.0 0.0" Properties=species:S:1:pos:R:3:Z:I:1 pbc="F F F"
C      -0.93325335       0.22291852      -0.86810719        6 
C       0.20415322      -0.74028484      -0.44640931        6 
C      -0.92878909       1.67222920      -0.38741831        6 
C       1.64327735      -0.27368895      -0.47023663        6 
O       0.03844669       1.96095873       0.48529515        8 
O      -1.82607713       2.43385593      -0.67128051        8 
O       2.43637057      -1.25963211       0.02076790        8 
O       2.07060094       0.77445211      -0.87699900        8 
C       3.84992623      -0.98822259       0.02323831        6 
C       0.00148678       3.27653407       1.06394780        6 
C      -2.08751177      -0.44058836      -0.04332042        6 
C      -2.31915388      -1.91883536      -0.45110720        6 
C      -1.19376330      -2.64856266       0.34830727        6 
C      -0.38920522      -1.43070886       0.83373853        6 
O      -1.44497511      -0.54645160       1.23973989        8 
H      -1.12088927       0.22389539      -1.94140117        1 
H       0.23075957      -1.51711522      -1.22181928        1 
H       4.20867967      -0.82438633      -0.99419836        1 
H      -0.92216697       3.41650817       1.62779443        1 
H      -2.98047514       0.17299719       0.03238685        1 
H      -3.31219947      -2.25013151      -0.14570689        1 
H      -2.23819898      -2.06265154      -1.53093045        1 
H      -1.60283489      -3.19084310       1.20227482        1 
H      -0.60533614      -3.34193103      -0.25562183        1 
H       0.30927304      -1.58677389       1.64997128        1 
H       4.06769066      -0.10556325       0.62636395        1 
H       4.31432771      -1.87207012       0.45513753        1 
H       0.06952729       4.03640053       0.28443374        1 
H       0.86620762       3.32521190       1.72174641        1 
