29
Lattice="0.0 0.0 0.0 0.0 0.0 0.0 0.0 0.0 0.0" Properties=species:S:1:pos:R:3:Z:I:1 pbc="F F F"
C      -0.34580106       0.61290933      -0.67046986        6 
C      -0.55825028      -0.90224256      -0.39129360        6 
C       0.82130807       1.23808972       0.07556472        6 
C       0.63870424      -1.74549026      -0.00034023        6 
O       1.00210376       2.51161274      -0.34210826        8 
O       1.48837445       0.72040230       0.93379419        8 
O       1.69152696      -1.47669469      -0.79879159        8 
O       0.60780186      -2.66031742       0.78456630        8 
C       2.89121716      -2.22467432      -0.53252490        6 
C       2.04127697       3.25111304       0.32733085        6 
C      -1.65674154       1.16594083      -0.02382716        6 
C      -2.90515277       0.66019906      -0.78829893        6 
C      -3.04999693      -0.78626052      -0.21969703        6 
C      -1.75280052      -0.88999454       0.60331120        6 
O      -1.68648075       0.41919339       1.19894577        8 
H      -0.26489180       0.85506705      -1.72965993        1 
H      -0.88133742      -1.36698922      -1.32974319        1 
H       3.26101750      -1.98772796       0.46610465        1 
H       3.00642851       2.76193850       0.18801733        1 
H      -1.63574712       2.23207229       0.18848533        1 
H      -3.77355582       1.27561805      -0.55030753        1 
H      -2.76305797       0.68555597      -1.87123183        1 
H      -3.91689979      -0.86563537       0.43764885        1 
H      -3.13051026      -1.55258648      -0.99308410        1 
H      -1.70874315      -1.65558341       1.37218263        1 
H       2.70051617      -3.29620556      -0.60610049        1 
H       3.60542440      -1.90745180      -1.28938066        1 
H       1.82733024       3.32597214       1.39457354        1 
H       2.04002421       4.23577766      -0.13480398        1 
