29
Lattice="0.0 0.0 0.0 0.0 0.0 0.0 0.0 0.0 0.0" Properties=species:S:1:pos:R:3:Z:I:1 pbc="F F F"
C      -0.78588421       0.12805379      -0.54551256        6 
C       0.36827551      -0.92726502      -0.52119034        6 
C      -0.42020361       1.56798005      -0.24378031        6 
C       1.65503176      -0.50711604       0.17659186        6 
O      -1.54306963       2.31880771      -0.17779819        8 
O       0.68733564       2.01863371      -0.10133059        8 
O       2.67850568      -0.48665278      -0.70853149        8 
O       1.77788310      -0.25503732       1.34583018        8 
C       3.93777260      -0.02595053      -0.18541386        6 
C      -1.35119060       3.72081444       0.09265867        6 
C      -1.85180070      -0.53472399       0.38249608        6 
C      -2.57703935      -1.63644419      -0.41826333        6 
C      -1.44917096      -2.71125031      -0.51626833        6 
C      -0.32822264      -2.04583894       0.31701278        6 
O      -1.05626248      -1.29201595       1.29450873        8 
H      -1.19171299       0.17319404      -1.56135954        1 
H       0.61543985      -1.25999415      -1.52769155        1 
H       3.83568418       0.99737381       0.17879795        1 
H      -0.74904265       4.18132727      -0.69195546        1 
H      -2.48398007       0.16477062       0.92138587        1 
H      -3.42995588      -2.00928230       0.15047693        1 
H      -2.93739688      -1.29160990      -1.38938545        1 
H      -1.75499901      -3.65233187      -0.05758864        1 
H      -1.13907001      -2.92015673      -1.54222220        1 
H       0.35730279      -2.72557777       0.81714435        1 
H       4.27268511      -0.66824739       0.63051713        1 
H       4.63360435      -0.07072497      -1.02055146        1 
H      -0.85483275       3.85688689       1.05446206        1 
H      -2.35028489       4.15045549       0.11180072        1 
