29
Lattice="0.0 0.0 0.0 0.0 0.0 0.0 0.0 0.0 0.0" Properties=species:S:1:pos:R:3:Z:I:1 pbc="F F F"
C       0.47147212       0.95260473       0.43029016        6 
C       0.65809372      -0.57522355       0.78732623        6 
C      -0.85233819       1.32977077      -0.21198797        6 
C      -0.54284267      -1.48583806       0.62703864        6 
O      -1.75198649       1.65411879       0.74887487        8 
O      -1.11317816       1.31660522      -1.38570936        8 
O      -0.98398339      -1.53348716      -0.63767178        8 
O      -1.02562056      -2.12445888       1.53373671        8 
C      -2.12475680      -2.37139847      -0.89322285        6 
C      -3.07824322       1.97351388       0.28854101        6 
C       1.65083998       1.15261809      -0.55882227        6 
C       2.98667710       1.13757800       0.21936120        6 
C       3.15649015      -0.38864709       0.49640835        6 
C       1.86188430      -0.94031779      -0.13996660        6 
O       1.68013617      -0.09034343      -1.27097608        8 
H       0.57954229       1.55077112       1.33517941        1 
H       0.93481330      -0.66857323       1.83643077        1 
H      -1.89796922      -3.41065840      -0.64991409        1 
H      -3.50384299       1.13272633      -0.26158617        1 
H       1.51158906       1.96948467      -1.26177232        1 
H       3.79394191       1.52041179      -0.40620419        1 
H       2.94912582       1.74015932       1.12930097        1 
H       4.02743058      -0.79102970      -0.02275900        1 
H       3.24797871      -0.63295540       1.55624652        1 
H       1.89189934      -1.98013044      -0.45801940        1 
H      -2.97850925      -2.04301861      -0.29807056        1 
H      -2.33015450      -2.25844493      -1.95494993        1 
H      -3.05602447       2.85007584      -0.36094630        1 
H      -3.65686928       2.17625261       1.18690214        1 
