29
Lattice="0.0 0.0 0.0 0.0 0.0 0.0 0.0 0.0 0.0" Properties=species:S:1:pos:R:3:Z:I:1 pbc="F F F"
C      -0.46446196      -0.77702253       0.44481338        6 
C      -0.65462197       0.77619274       0.64836309        6 
C       0.85490227      -1.18771039      -0.17557555        6 
C       0.44220929       1.65401931       0.06322232        6 
O       1.64036387      -1.80204948       0.73533923        8 
O       1.16682654      -1.03590916      -1.33059898        8 
O       1.64203600       1.32167485       0.58637789        8 
O       0.28117299       2.55053246      -0.72293565        8 
C       2.78287719       2.00967216       0.03879165        6 
C       2.93715934      -2.21250311       0.26779018        6 
C      -1.68698466      -1.09125495      -0.47160048        6 
C      -2.95430323      -1.15821394       0.40545006        6 
C      -3.14718790       0.35072819       0.74994485        6 
C      -2.00544138       0.99625602      -0.06931606        6 
O      -1.88133698       0.12368048      -1.20112813        8 
H      -0.54888038      -1.28664496       1.40380202        1 
H      -0.70293354       1.00438657       1.71615589        1 
H       2.87923135       1.77850459      -1.02311835        1 
H       3.50468980      -1.34741890      -0.07898028        1 
H      -1.53356629      -1.91417176      -1.16524999        1 
H      -3.79103498      -1.53886235      -0.18198313        1 
H      -2.83705046      -1.79436786       1.28500620        1 
H      -4.11600076       0.71843886       0.40978269        1 
H      -3.06399085       0.56154288       1.81858607        1 
H      -2.16628234       2.01530344      -0.40800796        1 
H       2.68017802       3.08733560       0.17019875        1 
H       3.64033775       1.63492758       0.59357384        1 
H       2.84139522      -2.92842813      -0.54994138        1 
H       3.42386147      -2.67150192       1.12544928        1 
