29
Lattice="0.0 0.0 0.0 0.0 0.0 0.0 0.0 0.0 0.0" Properties=species:S:1:pos:R:3:Z:I:1 pbc="F F F"
C      -0.61650790       0.86586592      -0.59243732        6 
C      -0.47329681      -0.68903888      -0.80615586        6 
C       0.68175107       1.64966352      -0.52381439        6 
C       0.88078316      -1.26830105      -0.39183886        6 
O       1.08084930       1.86464305       0.74400656        8 
O       1.29475015       2.01096328      -1.49609248        8 
O       0.75018401      -2.44865824       0.24458987        8 
O       1.95139198      -0.78800756      -0.66753769        8 
C       1.97644349      -3.09728153       0.63081413        6 
C       2.37635650       2.47453331       0.89514489        6 
C      -1.58642027       0.91568926       0.62536368        6 
C      -3.02367060       0.77936056       0.08983277        6 
C      -2.99753988      -0.69958169      -0.40280926        6 
C      -1.61837582      -1.17463137       0.11689777        6 
O      -1.39340455      -0.35203993       1.27429735        8 
H      -1.11207180       1.27224790      -1.47624111        1 
H      -0.61449782      -0.95402644      -1.85685440        1 
H       2.58274710      -3.32187933      -0.24802155        1 
H       2.39118115       3.46254875       0.43243676        1 
H      -1.40050582       1.72149123       1.32897788        1 
H      -3.73920655       0.91293859       0.90273607        1 
H      -3.26069703       1.49754144      -0.69736912        1 
H      -3.79795573      -1.28842219       0.04633212        1 
H      -3.08295635      -0.79064666      -1.48810802        1 
H      -1.55881254      -2.22127738       0.39323989        1 
H       2.54493887      -2.45805743       1.30738893        1 
H       1.67202445      -4.01250180       1.13345021        1 
H       3.13613526       1.84424691       0.43132213        1 
H       2.53709525       2.55052471       1.96837841        1 
