29
Lattice="0.0 0.0 0.0 0.0 0.0 0.0 0.0 0.0 0.0" Properties=species:S:1:pos:R:3:Z:I:1 pbc="F F F"
C      -0.83590544       0.28783386      -0.73864990        6 
C       0.08285716      -0.96463481      -0.51659472        6 
C      -0.10617538       1.61494097      -0.60890419        6 
C       1.43119424      -0.66872591       0.10789510        6 
O      -0.66624856       2.43849670       0.28859592        8 
O       0.85553951       1.90027132      -1.28154741        8 
O       2.37972063      -1.47397646      -0.41848914        8 
O       1.64325340       0.12416276       0.99020648        8 
C       3.70646026      -1.31182348       0.11808694        6 
C       0.01502247       3.68915741       0.50690948        6 
C      -2.00211090      -0.00597115       0.23855800        6 
C      -2.91634296      -1.08151250      -0.38909986        6 
C      -2.02461672      -2.35245179      -0.23882405        6 
C      -0.79783133      -1.76639273       0.49698868        6 
O      -1.36376493      -0.73016360       1.30209618        8 
H      -1.19125640       0.27460934      -1.77266031        1 
H       0.24346352      -1.52264180      -1.43712250        1 
H       4.04726792      -0.28607132      -0.02761021        1 
H       0.04784669       4.27279082      -0.41412906        1 
H      -2.49788725       0.87255361       0.63802226        1 
H      -3.83824188      -1.17515217       0.18654861        1 
H      -3.18229765      -0.86010335      -1.42469241        1 
H      -2.50887229      -3.10938188       0.37962370        1 
H      -1.76010737      -2.81317046      -1.19261683        1 
H      -0.24611539      -2.46333266       1.12464709        1 
H       3.71876226      -1.54849675       1.18326135        1 
H       4.33056974      -2.00798699      -0.43770129        1 
H       1.03063180       3.50096063       0.85627572        1 
H      -0.56522974       4.20362196       1.26949390        1 
