29
Lattice="0.0 0.0 0.0 0.0 0.0 0.0 0.0 0.0 0.0" Properties=species:S:1:pos:R:3:Z:I:1 pbc="F F F"
C      -0.55157532       0.47805222      -0.62881004        6 
C      -0.25118851      -1.05175662      -0.45954637        6 
C       0.47393742       1.44555356      -0.06336873        6 
C       1.11217669      -1.42779678       0.10044555        6 
O       0.05115251       2.71513171      -0.25900424        8 
O       1.51700623       1.17356937       0.47301659        8 
O       2.04874410      -1.34109123      -0.86745024        8 
O       1.33086616      -1.80833238       1.22102274        8 
C       3.40767084      -1.53340517      -0.43570443        6 
C       0.91817905       3.75321469       0.23712359        6 
C      -1.90394482       0.58383958       0.14112697        6 
C      -3.02348509      -0.12177760      -0.65895738        6 
C      -2.70563321      -1.61952244      -0.36370949        6 
C      -1.41745724      -1.48331426       0.47102889        6 
O      -1.67856997      -0.29759754       1.24334749        8 
H      -0.68081361       0.74397424      -1.67982315        1 
H      -0.32655964      -1.53463964      -1.43589660        1 
H       3.66467537      -0.78163579       0.31181984        1 
H       1.89175973       3.70190416      -0.25244930        1 
H      -2.13763970       1.58256550       0.49920753        1 
H      -4.00233282       0.16429964      -0.27203946        1 
H      -2.99499567       0.12529339      -1.72222053        1 
H      -3.49285239      -2.07909638       0.23557837        1 
H      -2.56951258      -2.21949083      -1.26575638        1 
H      -1.17677046      -2.30479367       1.13915821        1 
H       3.53924141      -2.53025846      -0.01203100        1 
H       4.01671942      -1.41319819      -1.32918618        1 
H       1.05165812       3.65312444       1.31515428        1 
H       0.41665631       4.68796511      -0.00313208        1 
