29
Lattice="0.0 0.0 0.0 0.0 0.0 0.0 0.0 0.0 0.0" Properties=species:S:1:pos:R:3:Z:I:1 pbc="F F F"
C      -0.52413666      -0.78126481       0.43064642        6 
C      -0.58900060       0.78568282       0.64013510        6 
C       0.77254921      -1.31064945      -0.14609026        6 
C       0.51746204       1.58478013      -0.03916423        6 
O       1.63626818      -1.62416946       0.84166603        8 
O       0.99886740      -1.49585064      -1.31616511        8 
O       1.71706390       1.30707546       0.51537614        8 
O       0.36785685       2.37147375      -0.93739106        8 
C       2.85400417       1.95921396      -0.08220475        6 
C       2.93171605      -2.08440348       0.42200148        6 
C      -1.76852092      -1.00864592      -0.47218340        6 
C      -3.02292255      -1.02141102       0.42428609        6 
C      -3.10305729       0.48435302       0.82464174        6 
C      -1.95491210       1.08538934      -0.01996450        6 
O      -1.91093949       0.23202387      -1.17313057        8 
H      -0.64854192      -1.26356251       1.40100361        1 
H      -0.55907827       1.02275965       1.70560352        1 
H       2.94606984       1.67008407      -1.13028185        1 
H       3.42495043      -1.32268060      -0.18413081        1 
H      -1.66441702      -1.82257099      -1.18449039        1 
H      -3.89329498      -1.32184783      -0.16079545        1 
H      -2.93792596      -1.69514166       1.27942864        1 
H      -4.05856259       0.92487847       0.53833504        1 
H      -2.96302219       0.65079468       1.89526572        1 
H      -2.07717333       2.11724921      -0.33543494        1 
H       2.75228584       3.04315396      -0.01492057        1 
H       3.71488080       1.61882387       0.48914625        1 
H       2.84363381      -3.00327802      -0.15989608        1 
H       3.48822365      -2.26332355       1.33932561        1 
