29
Lattice="0.0 0.0 0.0 0.0 0.0 0.0 0.0 0.0 0.0" Properties=species:S:1:pos:R:3:Z:I:1 pbc="F F F"
C       0.31088338       1.01172043       0.37129609        6 
C       0.64337508      -0.46058641       0.83674017        6 
C      -1.06629468       1.16918242      -0.24009913        6 
C      -0.50877968      -1.42561437       0.59852103        6 
O      -1.85407269       1.93577215       0.53899254        8 
O      -1.41967057       0.69701017      -1.29265269        8 
O      -0.22265652      -2.38881360      -0.28594733        8 
O      -1.56618054      -1.33541728       1.17843609        8 
C      -1.29985599      -3.28974807      -0.61098831        6 
C      -3.21620698       2.08874739       0.09492912        6 
C       1.44845630       1.24176932      -0.66633497        6 
C       2.76020738       1.52571290       0.09525492        6 
C       3.10096224       0.09989828       0.62800371        6 
C       1.93907819      -0.72970314       0.03333816        6 
O       1.67383376      -0.06311195      -1.20835133        8 
H       0.38543638       1.69891474       1.21235562        1 
H       0.81350539      -0.47233151       1.91534713        1 
H      -1.63588277      -3.82065924       0.28077387        1 
H      -3.70917314       1.11609354       0.06591285        1 
H       1.19675552       1.93232482      -1.46767659        1 
H       3.52570144       1.88715796      -0.59290344        1 
H       2.63664203       2.26657700       0.88740510        1 
H       4.05513143      -0.25450599       0.23575547        1 
H       3.14384853       0.04471981       1.71797845        1 
H       2.14901238      -1.77870621      -0.15042463        1 
H      -2.13269671      -2.73134798      -1.03947478        1 
H      -0.88528373      -3.98174195      -1.34022877        1 
H      -3.24713704       2.54166247      -0.89705638        1 
H      -3.68887783       2.73660467       0.82957873        1 
