29
Lattice="0.0 0.0 0.0 0.0 0.0 0.0 0.0 0.0 0.0" Properties=species:S:1:pos:R:3:Z:I:1 pbc="F F F"
C      -0.73258181       0.49815076       0.55611598        6 
C       0.80160255       0.32061230       0.70875945        6 
C      -1.55621091      -0.77400925       0.53349757        6 
C       1.37238354      -0.90026607       0.00157308        6 
O      -2.62485945      -0.66138330      -0.28064603        8 
O      -1.31964414      -1.74756322       1.20270118        8 
O       2.69527422      -1.00146369       0.27093028        8 
O       0.77851178      -1.67320544      -0.70271433        8 
C       3.37679231      -2.10845748      -0.34924370        6 
C      -3.47815181      -1.81975685      -0.36233038        6 
C      -0.83408861       1.54125666      -0.59893219        6 
C      -0.70498286       2.93954213       0.03411579        6 
C       0.77553065       2.88305757       0.52671955        6 
C       1.26400824       1.56143163      -0.11822434        6 
O       0.42900313       1.42606038      -1.27842375        8 
H      -1.08665085       0.98022065       1.47560592        1 
H       1.14780556       0.33692728       1.74124797        1 
H       2.95137610      -3.05364304      -0.00831806        1 
H      -3.90816164      -2.04766491       0.61425782        1 
H      -1.65075068       1.38352526      -1.29551557        1 
H      -0.83656734       3.70823535      -0.72890879        1 
H      -1.42499384       3.12027825       0.83471892        1 
H       1.35636267       3.72813233       0.15589750        1 
H       0.86448687       2.86592219       1.61526325        1 
H       2.31127768       1.53780312      -0.40805576        1 
H       3.29274197      -2.04799786      -1.43537470        1 
H       4.41542938      -2.02098919      -0.03808970        1 
H      -2.90874733      -2.67979941      -0.71636467        1 
H      -4.25776260      -1.55447392      -1.07302296        1 
