29
Lattice="0.0 0.0 0.0 0.0 0.0 0.0 0.0 0.0 0.0" Properties=species:S:1:pos:R:3:Z:I:1 pbc="F F F"
C      -0.54369728       0.63206208      -0.86186973        6 
C      -0.54150688      -0.87223491      -0.44287451        6 
C       0.59485666       1.59694314      -0.56268504        6 
C       0.70054071      -1.73739308      -0.32096000        6 
O       1.18699981       1.41015916       0.61863731        8 
O       0.81406401       2.55243689      -1.27593731        8 
O       1.83909591      -1.09759201      -0.03283039        8 
O       0.64466050      -2.93198448      -0.51492040        8 
C       3.01805292      -1.91986377       0.06445349        6 
C       2.17135618       2.38577947       0.99694917        6 
C      -1.75280534       1.10719395       0.02135503        6 
C      -3.06653055       0.41274543      -0.41943479        6 
C      -2.93728564      -0.97356590       0.28538495        6 
C      -1.49339347      -0.87157747       0.81083844        6 
O      -1.44931007       0.48142654       1.27377164        8 
H      -0.75136577       0.74216505      -1.92495178        1 
H      -1.07396581      -1.40012036      -1.23613216        1 
H       2.90244145      -2.65637892       0.86065081        1 
H       1.72014973       3.37669686       1.07050351        1 
H      -1.81526115       2.18561327       0.14835717        1 
H      -3.93108121       0.96929626      -0.05651702        1 
H      -3.14847920       0.33678010      -1.50569610        1 
H      -3.63358293      -1.05805758       1.12125459        1 
H      -3.09312898      -1.82185681      -0.38258583        1 
H      -1.21327977      -1.55306622       1.61011135        1 
H       3.20221350      -2.43666586      -0.87844023        1 
H       3.82880729      -1.23147682       0.29210785        1 
H       2.98058334       2.41543897       0.26532650        1 
H       2.54032614       2.05968860       1.96682474        1 
