29
Lattice="0.0 0.0 0.0 0.0 0.0 0.0 0.0 0.0 0.0" Properties=species:S:1:pos:R:3:Z:I:1 pbc="F F F"
C      -0.76432848      -0.35519872      -0.65329529        6 
C       0.77034482      -0.31694815      -0.45751020        6 
C      -1.57004834       0.70889560       0.07560550        6 
C       1.45326233       1.02956124      -0.34436801        6 
O      -2.78620923       0.82496020      -0.51840022        8 
O      -1.24627546       1.32633519       1.05261555        8 
O       2.76935462       0.84277874      -0.07717923        8 
O       0.95253243       2.11408497      -0.48159102        8 
C       3.55931249       2.04011787       0.05357823        6 
C      -3.70056346       1.74539949       0.10395689        6 
C      -1.05736608      -1.69889766       0.09917192        6 
C      -0.36880480      -2.89529707      -0.60716038        6 
C       1.09610268      -2.76443766      -0.08148247        6 
C       1.00272182      -1.40739555       0.64190855        6 
O      -0.27423845      -1.52009214       1.28562887        8 
H      -1.06509145      -0.38469949      -1.69911845        1 
H       1.20975719      -0.70953013      -1.38280218        1 
H       3.54477552       2.60982379      -0.87685108        1 
H      -3.28948923       2.75600079       0.09100842        1 
H      -2.10253821      -1.84727340       0.36101610        1 
H      -0.82394276      -3.83614424      -0.29592636        1 
H      -0.44314715      -2.83010108      -1.69483507        1 
H       1.32999007      -3.55410027       0.63410225        1 
H       1.84769900      -2.77953075      -0.87318698        1 
H       1.77541419      -1.17985279       1.36971996        1 
H       3.17307609       2.66300808       0.86154660        1 
H       4.56735109       1.69905881       0.27901157        1 
H      -3.89588871       1.45139400       1.13662664        1 
H      -4.61198614       1.69460063      -0.48814148        1 
