29
Lattice="0.0 0.0 0.0 0.0 0.0 0.0 0.0 0.0 0.0" Properties=species:S:1:pos:R:3:Z:I:1 pbc="F F F"
C       0.71676150      -0.81764244      -0.59832580        6 
C       0.56217387       0.73871438      -0.79371586        6 
C      -0.50493371      -1.69844232      -0.43383744        6 
C      -0.82407254       1.34938563      -0.64450148        6 
O      -1.41425782      -1.20722287       0.42182319        8 
O      -0.62002270      -2.76672650      -0.98878971        8 
O      -1.17959791       1.56065293       0.62974548        8 
O      -1.48013748       1.72440613      -1.59014414        8 
C      -2.47965388       2.13330768       0.83713114        6 
C      -2.58173980      -2.01839865       0.64961309        6 
C       1.68010833      -0.87110601       0.63563002        6 
C       3.11350251      -0.57657847       0.14534182        6 
C       3.00711837       0.95194715      -0.14820016        6 
C       1.55481178       1.24300408       0.29666529        6 
O       1.34925014       0.30923684       1.36515793        8 
H       1.21792425      -1.23513866      -1.47043740        1 
H       0.88207728       1.01055077      -1.79869728        1 
H      -2.55680441       3.10799455       0.35247273        1 
H      -2.29845720      -2.98521084       1.06787832        1 
H       1.56279353      -1.74755698       1.26941475        1 
H       3.82925416      -0.77788942       0.94368339        1 
H       3.39624537      -1.17018468      -0.72535607        1 
H       3.71172848       1.52380700       0.45688236        1 
H       3.17944116       1.20363056      -1.19646501        1 
H       1.36194378       2.25172500       0.65161212        1 
H      -3.25093855       1.47311237       0.43567415        1 
H      -2.58319124       2.23004024       1.91565408        1 
H      -3.12461126      -2.17449069      -0.28370722        1 
H      -3.18645511      -1.45681380       1.35827410        1 
