29
Lattice="0.0 0.0 0.0 0.0 0.0 0.0 0.0 0.0 0.0" Properties=species:S:1:pos:R:3:Z:I:1 pbc="F F F"
C       0.77636934      -0.68285506      -0.70317830        6 
C       0.29717633       0.81261884      -0.67413236        6 
C      -0.28881137      -1.75682877      -0.55329628        6 
C      -1.16303542       1.04784966      -0.31793942        6 
O      -0.62797426      -1.96340785       0.73018555        8 
O      -0.72436936      -2.39609002      -1.48001413        8 
O      -1.35959967       2.33277199       0.04673511        8 
O      -2.05592711       0.24259030      -0.39480955        8 
C      -2.71722437       2.69749976       0.36511107        6 
C      -1.71734754      -2.87581917       0.95050086        6 
C       1.84165659      -0.66238688       0.43659112        6 
C       3.13955281      -0.03621435      -0.11144881        6 
C       2.71148100       1.45856187      -0.22959783        6 
C       1.28421028       1.41191852       0.36344452        6 
O       1.36202711       0.35592084       1.32876448        8 
H       1.24159551      -0.89068953      -1.66648516        1 
H       0.43029619       1.27497673      -1.65660541        1 
H      -3.36370774       2.55260839      -0.50162606        1 
H      -1.48205047      -3.86226025       0.54811242        1 
H       1.94814747      -1.59957932       0.97530078        1 
H       3.94956721      -0.16041443       0.60855800        1 
H       3.45354210      -0.47462463      -1.06037237        1 
H       3.35087214       2.10663986       0.37114451        1 
H       2.72414307       1.83065216      -1.25633605        1 
H       0.93735388       2.32549467       0.83550479        1 
H      -3.08628408       2.09354191       1.19491863        1 
H      -2.67618377       3.74821838       0.64297279        1 
H      -2.61889867      -2.49088305       0.47178959        1 
H      -1.84362742      -2.92045620       2.03012670        1 
