29
Lattice="0.0 0.0 0.0 0.0 0.0 0.0 0.0 0.0 0.0" Properties=species:S:1:pos:R:3:Z:I:1 pbc="F F F"
C      -0.46128760       0.71135561       0.49330640        6 
C       0.95173265       0.13398343       0.82262808        6 
C      -1.60257828      -0.25792620       0.26259174        6 
C       1.22143820      -1.34341517       0.56726057        6 
O      -2.76683949       0.43668485       0.25087073        8 
O      -1.54790163      -1.44792474       0.08897162        8 
O       1.09117013      -1.68580624      -0.71899456        8 
O       1.64060447      -2.08667177       1.42521027        8 
C       1.26748657      -3.07782214      -1.02642012        6 
C      -3.96003274      -0.33102725       0.00271520        6 
C      -0.14927141       1.68158108      -0.69635728        6 
C       0.43249564       2.98384610      -0.10740278        6 
C       1.83449027       2.48058017       0.36272834        6 
C       1.81385094       1.01653265      -0.13760971        6 
O       0.99422960       1.08906243      -1.31147735        8 
H      -0.79443986       1.31434087       1.34128746        1 
H       1.20612040       0.29948861       1.86789213        1 
H       2.25793410      -3.42076813      -0.72291941        1 
H      -4.08901697      -1.09367182       0.77201979        1 
H      -0.95150407       1.79639264      -1.42078552        1 
H       0.52642292       3.73727798      -0.89081472        1 
H      -0.17691969       3.39808226       0.69733436        1 
H       2.63925644       3.03564853      -0.12075687        1 
H       1.97788081       2.54892691       1.44293538        1 
H       2.78228352       0.59231913      -0.39192765        1 
H       0.50397911      -3.66767430      -0.51655836        1 
H       1.14811636      -3.15114863      -2.10515027        1 
H      -3.90759790      -0.81225643      -0.97512577        1 
H      -4.77701698       0.38646028       0.03348144        1 
