29
Lattice="0.0 0.0 0.0 0.0 0.0 0.0 0.0 0.0 0.0" Properties=species:S:1:pos:R:3:Z:I:1 pbc="F F F"
C       0.77760059      -0.75321084      -0.70139099        6 
C       0.40555256       0.77101446      -0.68342776        6 
C      -0.32223746      -1.75675288      -0.40916252        6 
C      -1.07984834       1.06732281      -0.56503294        6 
O      -0.97291183      -1.48808349       0.73588354        8 
O      -0.52870771      -2.73527813      -1.08590777        8 
O      -1.32655989       2.14337316       0.20455979        8 
O      -1.94086996       0.45044790      -1.14298823        8 
C      -2.71149016       2.51964878       0.33733588        6 
C      -2.05267225      -2.37617735       1.07156251        6 
C       1.86745344      -0.77584376       0.41886514        6 
C       3.16534098      -0.13663265      -0.12186838        6 
C       2.78305182       1.37487436      -0.09690626        6 
C       1.33432428       1.30626354       0.43703659        6 
O       1.39173454       0.20191715       1.35082585        8 
H       1.19072421      -1.04843983      -1.66381190        1 
H       0.68158894       1.21212473      -1.64695162        1 
H      -3.13160749       2.77763868      -0.63576012        1 
H      -1.68905553      -3.39922063       1.17834066        1 
H       1.98289650      -1.73565953       0.91749101        1 
H       3.99931908      -0.34828063       0.54854998        1 
H       3.42828689      -0.50125302      -1.11652717        1 
H       3.41273007       1.93182922       0.59825779        1 
H       2.85240730       1.85463585      -1.07534836        1 
H       0.96949179       2.19176232       0.94678135        1 
H      -3.28468386       1.69929426       0.77088364        1 
H      -2.71375533       3.38245356       0.99940306        1 
H      -2.81885582      -2.34278001       0.29533749        1 
H      -2.44552684      -2.00840983       2.01696283        1 
