29
Lattice="0.0 0.0 0.0 0.0 0.0 0.0 0.0 0.0 0.0" Properties=species:S:1:pos:R:3:Z:I:1 pbc="F F F"
C      -0.71860425       0.51885139       0.59177329        6 
C       0.79931576       0.20964785       0.46516700        6 
C      -1.68696392      -0.40633982      -0.13011340        6 
C       1.22979663      -1.22606733       0.25049636        6 
O      -2.77349969      -0.62184115       0.65620196        8 
O      -1.57510717      -0.84862290      -1.24042312        8 
O       2.58515626      -1.28396549       0.25915270        8 
O       0.53027952      -2.19071627       0.08916566        8 
C       3.15934892      -2.58704757       0.04248951        6 
C      -3.80101592      -1.44938799       0.08150576        6 
C      -0.74651316       1.88597505      -0.17125313        6 
C       0.05579726       2.96012748       0.60754025        6 
C       1.52129052       2.59697724       0.20805664        6 
C       1.27666462       1.28820595      -0.56833203        6 
O       0.08864448       1.60252422      -1.29836080        8 
H      -1.03237656       0.61708431       1.62911343        1 
H       1.25954250       0.45964965       1.42636420        1 
H       2.85915108      -3.27313033       0.83623858        1 
H      -3.40220843      -2.43670003      -0.15591427        1 
H      -1.73332964       2.19245497      -0.51175200        1 
H      -0.21694403       3.96118323       0.27150256        1 
H      -0.12185133       2.90665881       1.68388801        1 
H       1.94623927       3.34964227      -0.45787829        1 
H       2.19002197       2.47389221       1.06183471        1 
H       2.06187856       0.96676861      -1.24661037        1 
H       2.83804000      -2.98940321      -0.91924779        1 
H       4.23637441      -2.43518130       0.05549477        1 
H      -4.19589940      -0.99451644      -0.82870785        1 
H      -4.57649721      -1.51985487       0.84147969        1 
