29
Lattice="0.0 0.0 0.0 0.0 0.0 0.0 0.0 0.0 0.0" Properties=species:S:1:pos:R:3:Z:I:1 pbc="F F F"
C      -0.57753875       0.58498902      -0.84836231        6 
C      -0.44090323      -0.87480246      -0.31173027        6 
C       0.38529652       1.64656668      -0.31416748        6 
C       0.93139373      -1.40414859       0.04361287        6 
O       1.42593053       1.14654682       0.36760837        8 
O       0.17498859       2.83038860      -0.42842462        8 
O       1.77201427      -1.25289200      -1.00237778        8 
O       1.21114902      -2.01615117       1.04412285        8 
C       3.11579320      -1.72123499      -0.80635019        6 
C       2.28717165       2.10106338       1.01655849        6 
C      -1.95772032       0.93130432      -0.21643540        6 
C      -3.07872964      -0.00043141      -0.73823476        6 
C      -2.86093437      -1.27632896       0.13390549        6 
C      -1.52448942      -0.91573494       0.80473483        6 
O      -1.73434868       0.47115715       1.12952230        8 
H      -0.57246396       0.63946335      -1.93782653        1 
H      -0.75087500      -1.53865493      -1.12656973        1 
H       3.58894320      -1.17342500       0.01057500        1 
H       1.71144195       2.71683939       1.70839177        1 
H      -2.18394348       1.99315203      -0.21547901        1 
H      -4.05864961       0.44539741      -0.56588006        1 
H      -2.98370961      -0.19415283      -1.80928718        1 
H      -3.64322939      -1.37815931       0.88732990        1 
H      -2.81550098      -2.19963173      -0.44732215        1 
H      -1.24050411      -1.47291474       1.69249083        1 
H       3.12379145      -2.78782241      -0.57698280        1 
H       3.63208066      -1.52657859      -1.74401525        1 
H       2.77076981       2.74063350       0.27705845        1 
H       3.02187168       1.50526919       1.55319389        1 
