29
Lattice="0.0 0.0 0.0 0.0 0.0 0.0 0.0 0.0 0.0" Properties=species:S:1:pos:R:3:Z:I:1 pbc="F F F"
C      -0.56481489       0.37889148      -0.73833277        6 
C      -0.11436672      -1.07381935      -0.34154407        6 
C       0.29656755       1.50136182      -0.16316551        6 
C       1.29977825      -1.24540343       0.18242397        6 
O      -0.41750547       2.63398448      -0.01161032        8 
O       1.48024016       1.43843503       0.05768959        8 
O       2.17943254      -1.19364091      -0.83700347        8 
O       1.59784947      -1.50186868       1.32174231        8 
C       3.56888679      -1.21082937      -0.46697147        6 
C       0.30653439       3.77570034       0.48710868        6 
C      -1.98719942       0.38157531      -0.11958446        6 
C      -2.90207956      -0.65000435      -0.82375793        6 
C      -2.43949206      -1.98232090      -0.15772420        6 
C      -1.23352202      -1.47953280       0.65572768        6 
O      -1.72000203      -0.22045371       1.15619373        8 
H      -0.56873752       0.51479840      -1.82288191        1 
H      -0.16358137      -1.69476054      -1.23886806        1 
H       3.79922615      -0.32476482       0.12634851        1 
H       1.12562160       4.03186087      -0.18636207        1 
H      -2.41361798       1.36932920       0.01855445        1 
H      -3.95057802      -0.43680685      -0.61284141        1 
H      -2.77130992      -0.64497129      -1.90846759        1 
H      -3.20550011      -2.37628168       0.51188686        1 
H      -2.17767713      -2.76020208      -0.87771606        1 
H      -0.89634099      -2.09720518       1.48276022        1 
H       3.80447924      -2.10930486       0.10509552        1 
H       4.11988238      -1.19699805      -1.40498087        1 
H       0.70720123       3.56349843       1.47900949        1 
H      -0.42247925       4.58156527       0.53180774        1 
