29
Lattice="0.0 0.0 0.0 0.0 0.0 0.0 0.0 0.0 0.0" Properties=species:S:1:pos:R:3:Z:I:1 pbc="F F F"
C       0.25605938       1.06303056       0.34909447        6 
C       0.55887152      -0.42561107       0.77230817        6 
C      -1.12076574       1.31065470      -0.23655663        6 
C      -0.49622985      -1.43593592       0.33152599        6 
O      -1.99577520       1.63024916       0.73550055        8 
O      -1.39224545       1.28672057      -1.41129725        8 
O       0.04790675      -2.57300943      -0.13576734        8 
O      -1.68681262      -1.27388198       0.44758440        8 
C      -0.87929673      -3.59302396      -0.55668609        6 
C      -3.37380510       1.72488887       0.33187840        6 
C       1.41269657       1.32468438      -0.65379593        6 
C       2.68443405       1.66227399       0.14564306        6 
C       3.00541158       0.26960533       0.77002537        6 
C       1.93672694      -0.62328786       0.09372159        6 
O       1.71719783       0.01890575      -1.17084177        8 
H       0.34151114       1.70339416       1.22800830        1 
H       0.60936984      -0.50884951       1.86141305        1 
H      -1.50815395      -3.90482673       0.27834760        1 
H      -3.71576777       0.75285197      -0.02633308        1 
H       1.15378042       1.98971075      -1.47279115        1 
H       3.47736305       1.98649291      -0.52999156        1 
H       2.52570228       2.44631464       0.88838029        1 
H       4.00772311      -0.06890296       0.50484017        1 
H       2.92432778       0.25889122       1.85954857        1 
H       2.21770254      -1.65918289      -0.06174944        1 
H      -1.50850701      -3.21827886      -1.36464045        1 
H      -0.26061021      -4.41781170      -0.90285466        1 
H      -3.49501913       2.47133248      -0.45426991        1 
H      -3.91945604       2.01634215       1.22675197        1 
