29
Lattice="0.0 0.0 0.0 0.0 0.0 0.0 0.0 0.0 0.0" Properties=species:S:1:pos:R:3:Z:I:1 pbc="F F F"
C       0.57244317      -0.78116014      -0.55272924        6 
C       0.54180314       0.80231116      -0.48759152        6 
C      -0.60399323      -1.47288027       0.11434632        6 
C      -0.69353260       1.38528837       0.17129993        6 
O      -1.66885933      -1.49467426      -0.71966340        8 
O      -0.61877000      -1.93917338       1.22352114        8 
O      -1.65257195       1.62466339      -0.75106452        8 
O      -0.82546867       1.62042916       1.34516154        8 
C      -2.90665754       2.11429496      -0.24315128        6 
C      -2.87380741      -2.07614130      -0.18697827        6 
C       1.90116471      -1.06597065       0.19162579        6 
C       3.09244452      -0.68468563      -0.71645467        6 
C       3.05755151       0.87202549      -0.61567477        6 
C       1.84115814       1.07732274       0.31439206        6 
O       1.92412021      -0.04591857       1.19559468        8 
H       0.59375940      -1.10234184      -1.59464224        1 
H       0.59020452       1.20371989      -1.49972712        1 
H      -3.34577095       1.39184115       0.44722077        1 
H      -3.18062653      -1.55323362       0.72021499        1 
H       1.94512064      -2.04309838       0.66457748        1 
H       4.02048797      -1.09018985      -0.31168170        1 
H       2.97936340      -1.05245571      -1.73871505        1 
H       3.96046149       1.26075661      -0.14318190        1 
H       2.94004119       1.36583708      -1.58260923        1 
H       1.82363973       1.99624502       0.89434291        1 
H      -2.76692845       3.06356001       0.27615965        1 
H      -3.54273093       2.24396224      -1.11594170        1 
H      -2.71888754      -3.13096150       0.04571221        1 
H      -3.62072176      -1.96308143      -0.96963908        1 
