29
Lattice="0.0 0.0 0.0 0.0 0.0 0.0 0.0 0.0 0.0" Properties=species:S:1:pos:R:3:Z:I:1 pbc="F F F"
C       0.81810398      -0.65297081      -0.81265592        6 
C       0.29137473       0.78913603      -0.56064329        6 
C      -0.00206086      -1.83184213      -0.30194234        6 
C      -1.20770260       0.99042378      -0.63491031        6 
O      -1.08508633      -1.48284645       0.40423866        8 
O       0.37103478      -2.97455962      -0.43163448        8 
O      -1.64759541       1.87195170       0.28598459        8 
O      -1.91941119       0.47359332      -1.45964076        8 
C      -3.05754563       2.16499014       0.25270155        6 
C      -1.83367030      -2.55803287       0.99884819        6 
C       2.07551934      -0.60493308       0.11127764        6 
C       3.08487435       0.47159637      -0.35723632        6 
C       2.44680717       1.77311368       0.22198003        6 
C       1.09492465       1.21800582       0.70604712        6 
O       1.49934948      -0.03010068       1.29720089        8 
H       1.06284884      -0.84702734      -1.85633237        1 
H       0.64006968       1.40010196      -1.40215891        1 
H      -3.32995118       2.62276132      -0.69956926        1 
H      -1.21127814      -3.10403743       1.70917031        1 
H       2.49359188      -1.58302655       0.33228002        1 
H       4.07052710       0.28145239       0.06844438        1 
H       3.18804923       0.49182827      -1.44447539        1 
H       3.02115963       2.15161857       1.06872769        1 
H       2.34690663       2.57373076      -0.51375516        1 
H       0.54276769       1.81156139       1.42681811        1 
H      -3.63743220       1.25154068       0.39027453        1 
H      -3.22879441       2.85725439       1.07404810        1 
H      -2.19229547      -3.24222934       0.22889391        1 
H      -2.66882564      -2.08123825       1.50713106        1 
