29
Lattice="0.0 0.0 0.0 0.0 0.0 0.0 0.0 0.0 0.0" Properties=species:S:1:pos:R:3:Z:I:1 pbc="F F F"
C      -0.39553761      -0.68747752       0.52406956        6 
C      -0.63920753       0.86243997       0.58899250        6 
C       0.91325641      -1.14279749      -0.08131200        6 
C       0.47649232       1.72383372       0.01666648        6 
O       1.34698159      -2.26261260       0.54409604        8 
O       1.48011549      -0.64889192      -1.02267502        8 
O       1.55335545       1.68270903       0.83305810        8 
O       0.42797941       2.36164230      -1.00105549        8 
C       2.74046845       2.32343710       0.32850165        6 
C       2.54170861      -2.86018063       0.00657492        6 
C      -1.60348603      -1.12769428      -0.37162756        6 
C      -2.89115169      -1.09852728       0.47937751        6 
C      -3.13341106       0.43905059       0.58768271        6 
C      -1.94533057       0.98770895      -0.23300419        6 
O      -1.77051915      -0.01589002      -1.24767162        8 
H      -0.47316241      -1.13380565       1.51413951        1 
H      -0.77561633       1.16325722       1.62981704        1 
H       3.04655793       1.84736672      -0.60418327        1 
H       3.37420555      -2.15694467       0.05554594        1 
H      -1.43485137      -2.03510151      -0.94813304        1 
H      -3.70327525      -1.59169850      -0.05672900        1 
H      -2.77156476      -1.59137215       1.44615095        1 
H      -4.07782336       0.72485166       0.12341083        1 
H      -3.13707673       0.80280380       1.61723133        1 
H      -2.08501294       1.95646107      -0.70327181        1 
H       2.55982222       3.38496654       0.15379956        1 
H       3.49556460       2.18507302       1.09939273        1 
H       2.38544707      -3.15876056      -1.03120386        1 
H       2.73681694      -3.72944683       0.63075032        1 
