29
Lattice="0.0 0.0 0.0 0.0 0.0 0.0 0.0 0.0 0.0" Properties=species:S:1:pos:R:3:Z:I:1 pbc="F F F"
C      -0.51961172       0.56932560      -0.88499475        6 
C      -0.44318469      -0.88000856      -0.33511191        6 
C       0.46875062       1.64667480      -0.45552147        6 
C       0.83972040      -1.67822019      -0.18749225        6 
O       1.16460583       1.35476120       0.64605013        8 
O       0.48933201       2.73250564      -0.99210687        8 
O       1.97189356      -0.98195357      -0.35431122        8 
O       0.81736612      -2.88526591      -0.08986001        8 
C       3.19142642      -1.74775693      -0.36447595        6 
C       1.98360903       2.40821406       1.17927849        6 
C      -1.86080000       0.98503213      -0.18196935        6 
C      -3.04526761       0.08312238      -0.61776420        6 
C      -2.84126470      -1.16905976       0.29409261        6 
C      -1.45245984      -0.84418489       0.87178666        6 
O      -1.59219892       0.55390563       1.16157894        8 
H      -0.58706194       0.60335140      -1.97159067        1 
H      -0.93006407      -1.49082629      -1.10166236        1 
H       3.31566585      -2.27913431       0.57975861        1 
H       1.36550261       3.25791793       1.47363886        1 
H      -2.05434971       2.05433178      -0.20112570        1 
H      -3.99472313       0.57925474      -0.41523677        1 
H      -3.01314754      -0.15257519      -1.68379396        1 
H      -3.58288506      -1.20095155       1.09386673        1 
H      -2.87013516      -2.11592380      -0.24763895        1 
H      -1.14421749      -1.38794580       1.76042657        1 
H       3.18276893      -2.46883783      -1.18338658        1 
H       3.98591055      -1.01778822      -0.50267337        1 
H       2.71606719       2.73515721       0.43972313        1 
H       2.47836331       1.97659749       2.04652449        1 
