29
Lattice="0.0 0.0 0.0 0.0 0.0 0.0 0.0 0.0 0.0" Properties=species:S:1:pos:R:3:Z:I:1 pbc="F F F"
C       0.57007516      -0.66597493       0.59350436        6 
C      -0.94330705      -0.28694941       0.76060300        6 
C       1.51833419       0.43460568       0.15770405        6 
C      -1.27847475       1.19241590       0.62963279        6 
O       2.78988797      -0.02370101       0.21930223        8 
O       1.23529888       1.54743571      -0.20475872        8 
O      -1.63345880       1.53460845      -0.61672945        8 
O      -1.29361620       1.94749934       1.57257695        8 
C      -1.84091243       2.93817736      -0.84873559        6 
C       3.81515058       0.90147016      -0.19134780        6 
C       0.46999931      -1.78315070      -0.49401259        6 
C      -0.12982891      -3.06105299       0.13412281        6 
C      -1.63274849      -2.65971881       0.24321395        6 
C      -1.59301194      -1.21711832      -0.30395210        6 
O      -0.58600296      -1.30131816      -1.32645332        8 
H       0.97508240      -1.07402799       1.52064786        1 
H      -1.26615598      -0.55412131       1.76746537        1 
H      -2.62820221       3.32479308      -0.19987247        1 
H       3.77592371       1.80601933       0.41686937        1 
H       1.37539877      -1.92275646      -1.07935811        1 
H       0.00876437      -3.91074982      -0.53558666        1 
H       0.32511869      -3.30758861       1.09507525        1 
H      -2.25772540      -3.28661879      -0.39450624        1 
H      -2.02166963      -2.71564837       1.26170746        1 
H      -2.51686628      -0.84266506      -0.73443957        1 
H      -0.91239641       3.47944027      -0.66169914        1 
H      -2.12790756       3.01885476      -1.89491569        1 
H       3.68810682       1.16817834      -1.24172035        1 
H       4.75565694       0.37653185      -0.04015747        1 
