29
Lattice="0.0 0.0 0.0 0.0 0.0 0.0 0.0 0.0 0.0" Properties=species:S:1:pos:R:3:Z:I:1 pbc="F F F"
C      -0.38521645       0.52653208      -0.71884409        6 
C      -0.38121585      -0.97401704      -0.32491326        6 
C       0.62162999       1.38197252       0.04441256        6 
C       0.91986051      -1.66524946       0.02492965        6 
O       0.44437404       2.68497135      -0.27343317        8 
O       1.47131352       0.99879812       0.80554388        8 
O       1.92649252      -1.23028270      -0.75530215        8 
O       0.99814847      -2.63454007       0.74052521        8 
C       3.20548000      -1.85299683      -0.54389347        6 
C       1.31338268       3.61991737       0.39306838        6 
C      -1.79466521       0.90297390      -0.16211683        6 
C      -2.91959248       0.09725505      -0.86061954        6 
C      -2.84835524      -1.26417103      -0.09978893        6 
C      -1.55070623      -1.05550899       0.70050075        6 
O      -1.71307039       0.30556920       1.14324166        8 
H      -0.27433996       0.70406909      -1.78855677        1 
H      -0.68192997      -1.53181897      -1.22023393        1 
H       3.54606319      -1.66517656       0.47525278        1 
H       2.35616192       3.41295317       0.14776402        1 
H      -1.96796019       1.97133265      -0.07309891        1 
H      -3.88408901       0.58751926      -0.72440309        1 
H      -2.74496703      -0.00421226      -1.93443322        1 
H      -3.69265920      -1.38068496       0.58122536        1 
H      -2.81243287      -2.13286442      -0.76011570        1 
H      -1.37205991      -1.71357337       1.54550961        1 
H       3.14413453      -2.92869636      -0.71603774        1 
H       3.87680762      -1.38594052      -1.26119277        1 
H       1.17890397       3.55785861       1.47385261        1 
H       1.02034487       4.60069869       0.02492008        1 
