29
Lattice="0.0 0.0 0.0 0.0 0.0 0.0 0.0 0.0 0.0" Properties=species:S:1:pos:R:3:Z:I:1 pbc="F F F"
C      -0.53645611       0.56382166      -0.87219833        6 
C      -0.41261347      -0.86312149      -0.27335970        6 
C       0.39393466       1.65292075      -0.33798740        6 
C       0.93922586      -1.47656552       0.01123100        6 
O       1.31274458       1.21126016       0.53283321        8 
O       0.22496948       2.82377503      -0.58619422        8 
O       1.86272589      -1.06120869      -0.87790081        8 
O       1.11921830      -2.39096745       0.77931202        8 
C       3.15217392      -1.69240967      -0.79652633        6 
C       2.09371879       2.22097824       1.19821951        6 
C      -1.92978886       0.92937049      -0.26774557        6 
C      -3.04043247      -0.04287128      -0.73808789        6 
C      -2.82168413      -1.26012670       0.21514934        6 
C      -1.48513499      -0.85269216       0.85878249        6 
O      -1.70863089       0.54771062       1.10358304        8 
H      -0.51258034       0.58569336      -1.96153146        1 
H      -0.77164539      -1.54752031      -1.05366788        1 
H       3.60053380      -1.51610774       0.18239115        1 
H       1.44212166       2.88044008       1.77296287        1 
H      -2.16962855       1.98675288      -0.32747126        1 
H      -4.02448922       0.40632911      -0.60174378        1 
H      -2.93661235      -0.30277594      -1.79407911        1 
H      -3.60315813      -1.31417606       0.97456571        1 
H      -2.77342321      -2.21921877      -0.30428644        1 
H      -1.19498982      -1.36053803       1.77376187        1 
H       3.06468204      -2.76741350      -0.96259578        1 
H       3.74996173      -1.23051795      -1.57923521        1 
H       2.65461611       2.80972709       0.47135229        1 
H       2.76690936       1.67635031       1.85646562        1 
