29
Lattice="0.0 0.0 0.0 0.0 0.0 0.0 0.0 0.0 0.0" Properties=species:S:1:pos:R:3:Z:I:1 pbc="F F F"
C      -0.60966653       0.58641020      -0.71407206        6 
C      -0.56611845      -0.98766492      -0.63805272        6 
C       0.71229541       1.33053744      -0.69626793        6 
C       0.63727643      -1.67095473       0.01464255        6 
O       0.98104935       1.87762391       0.50547900        8 
O       1.44409740       1.41927689      -1.65053683        8 
O       1.79796672      -1.05535709      -0.24957659        8 
O       0.55698790      -2.68225231       0.66846401        8 
C       2.98261305      -1.65027513       0.31197266        6 
C       2.24867530       2.54787495       0.61855027        6 
C      -1.66607679       0.91073324       0.38468852        6 
C      -3.06468181       0.75338586      -0.24206227        6 
C      -3.11073250      -0.79326482      -0.43760390        6 
C      -1.80422343      -1.23261649       0.26190488        6 
O      -1.60596226      -0.22127730       1.26569597        8 
H      -1.01838306       0.83908638      -1.69515839        1 
H      -0.66751130      -1.42346627      -1.63519567        1 
H       2.92516099      -1.64720594       1.40133519        1 
H       2.31619440       3.36409569      -0.10196399        1 
H      -1.48298536       1.82253040       0.94499257        1 
H      -3.82896079       1.08631447       0.46189572        1 
H      -3.18515735       1.31391958      -1.17146727        1 
H      -3.97430899      -1.23519963       0.06050805        1 
H      -3.14097029      -1.09366190      -1.48764074        1 
H      -1.81526845      -2.21403986       0.72473985        1 
H       3.09702513      -2.67592126      -0.04083743        1 
H       3.80597313      -1.03054101      -0.03582166        1 
H       3.06205949       1.84321712       0.43814642        1 
H       2.28707553       2.92760357       1.63709190        1 
