29
Lattice="0.0 0.0 0.0 0.0 0.0 0.0 0.0 0.0 0.0" Properties=species:S:1:pos:R:3:Z:I:1 pbc="F F F"
C       0.65400938      -0.87589228      -0.72375231        6 
C       0.54667154       0.68960244      -0.65363689        6 
C      -0.47022375      -1.74009471      -0.15443845        6 
C      -0.84428962       1.29486989      -0.66532663        6 
O      -1.64802201      -1.11097023      -0.05567158        8 
O      -0.30097999      -2.88838661       0.17953593        8 
O      -1.18359409       1.85335761       0.51185526        8 
O      -1.55716581       1.29733004      -1.63866309        8 
C      -2.50967326       2.40563314       0.58313089        6 
C      -2.74326463      -1.87612791       0.48154919        6 
C       1.88699536      -1.08219096       0.19783931        6 
C       3.15872444      -0.43291977      -0.39633120        6 
C       2.94050852       1.06906246      -0.03554187        6 
C       1.50920343       1.01062997       0.52866339        6 
O       1.54220882      -0.20945985       1.28877082        8 
H       0.82411878      -1.21829840      -1.74687058        1 
H       0.98044590       1.07023688      -1.58212224        1 
H      -2.63942962       3.19036166      -0.16336008        1 
H      -2.52286993      -2.18381490       1.50449936        1 
H       1.99324242      -2.10164608       0.55493179        1 
H       4.05089865      -0.83697208       0.08296997        1 
H       3.24808197      -0.60805827      -1.47097542        1 
H       3.63531236       1.39468346       0.74009407        1 
H       3.03689218       1.74138515      -0.89046200        1 
H       1.19986390       1.83266564       1.16621871        1 
H      -3.25074650       1.62316375       0.41243504        1 
H      -2.60273057       2.81002880       1.58861505        1 
H      -2.92701189      -2.75913060      -0.13162604        1 
H      -3.60055324      -1.20731016       0.45503067        1 
