29
Lattice="0.0 0.0 0.0 0.0 0.0 0.0 0.0 0.0 0.0" Properties=species:S:1:pos:R:3:Z:I:1 pbc="F F F"
C      -0.48849745       0.37640352      -0.79584578        6 
C      -0.11852810      -1.04786761      -0.25480438        6 
C       0.32465297       1.52475532      -0.18045913        6 
C       1.30121322      -1.32981484       0.19626381        6 
O      -0.45173081       2.59110410       0.09715893        8 
O       1.52247207       1.54261053      -0.04350543        8 
O       2.16571540      -1.05700351      -0.79516480        8 
O       1.60279892      -1.90214570       1.21573501        8 
C       3.55960001      -1.24319046      -0.49700609        6 
C       0.22365741       3.74012416       0.64136983        6 
C      -1.95547415       0.42935640      -0.29275939        6 
C      -2.82004262      -0.69553124      -0.91753395        6 
C      -2.43982114      -1.91987837      -0.02933299        6 
C      -1.26216970      -1.32054747       0.75870994        6 
O      -1.76566154      -0.00748590       1.06757753        8 
H      -0.37769942       0.44269683      -1.88014594        1 
H      -0.22689004      -1.73538870      -1.10120183        1 
H       3.86294709      -0.55390887       0.29230446        1 
H       0.95965991       4.12191033      -0.06781490        1 
H      -2.40137565       1.41710620      -0.30207162        1 
H      -3.87997404      -0.45199765      -0.83899707        1 
H      -2.59137399      -0.84979247      -1.97506113        1 
H      -3.25121458      -2.18258128       0.65120458        1 
H      -2.16869221      -2.80866552      -0.60263738        1 
H      -0.95320289      -1.83011001       1.66646335        1 
H       3.75421087      -2.26999107      -0.18400142        1 
H       4.08591916      -1.01464998      -1.42102487        1 
H       0.72375353       3.47749157       1.57423023        1 
H      -0.55811272       4.47525093       0.81878251        1 
