29
Lattice="0.0 0.0 0.0 0.0 0.0 0.0 0.0 0.0 0.0" Properties=species:S:1:pos:R:3:Z:I:1 pbc="F F F"
C      -0.59096230       0.60429954      -0.80221701        6 
C      -0.53999857      -0.91208439      -0.41798385        6 
C       0.59226451       1.47722862      -0.42936632        6 
C       0.80368129      -1.48050600      -0.00485260        6 
O       1.12627328       1.15144867       0.75962671        8 
O       0.96032763       2.41637583      -1.09496084        8 
O       1.76457247      -1.09619296      -0.87179334        8 
O       0.98671897      -2.26028417       0.89527937        8 
C       3.09396595      -1.57261049      -0.59903411        6 
C       2.21827202       1.96867388       1.21480330        6 
C      -1.83876160       1.03641847       0.03551489        6 
C      -3.11891280       0.41883276      -0.57654571        6 
C      -3.02143700      -1.05105487      -0.06241679        6 
C      -1.65617075      -1.01557938       0.65413425        6 
O      -1.66440622       0.29454262       1.24593591        8 
H      -0.74974686       0.75441027      -1.86843059        1 
H      -0.81403714      -1.49877110      -1.30093891        1 
H       3.42195615      -1.22891921       0.38354768        1 
H       1.89090584       3.00062410       1.34946752        1 
H      -1.88880125       2.10123178       0.25371083        1 
H      -4.00441133       0.92128930      -0.18531608        1 
H      -3.13974051       0.49628625      -1.66532259        1 
H      -3.81373086      -1.27292649       0.65354351        1 
H      -3.06449072      -1.79401895      -0.86156685        1 
H      -1.47729002      -1.76884566       1.41547426        1 
H       3.12492774      -2.66279142      -0.62671748        1 
H       3.71935686      -1.15004803      -1.38215696        1 
H       3.03771594       1.94426592       0.49426977        1 
H       2.52422846       1.53658671       2.16473328        1 
