29
Lattice="0.0 0.0 0.0 0.0 0.0 0.0 0.0 0.0 0.0" Properties=species:S:1:pos:R:3:Z:I:1 pbc="F F F"
C      -0.73392861       0.24766531      -0.58694170        6 
C       0.17584590      -1.02456158      -0.48490311        6 
C      -0.09760780       1.57943912      -0.23361556        6 
C       1.52714007      -0.83226166       0.18942560        6 
O      -1.04623745       2.53796254      -0.15378739        8 
O       1.07711417       1.79662012      -0.07934209        8 
O       2.51699052      -0.87268823      -0.72967377        8 
O       1.71202742      -0.69771157       1.37049978        8 
C       3.83698887      -0.59215916      -0.23038085        6 
C      -0.57847184       3.86609303       0.15274364        6 
C      -1.95505895      -0.16753512       0.28726354        6 
C      -2.82600103      -1.16439828      -0.50661999        6 
C      -1.93081968      -2.44055425      -0.45670852        6 
C      -0.73905636      -1.93513936       0.38839082        6 
O      -1.35687943      -0.99874956       1.28382535        8 
H      -1.05940355       0.37521318      -1.62414663        1 
H       0.35136871      -1.44725025      -1.47323313        1 
H       3.86688821       0.41578523       0.18601201        1 
H       0.08754590       4.22573067      -0.63316429        1 
H      -2.47957814       0.66180713       0.75199912        1 
H      -3.77318937      -1.32507960       0.01036339        1 
H      -3.04513666      -0.82518690      -1.52090977        1 
H      -2.43663146      -3.26167895       0.05306636        1 
H      -1.62417698      -2.79239062      -1.44385419        1 
H      -0.20699704      -2.68849924       0.96338018        1 
H       4.11774321      -1.31216361       0.53986049        1 
H       4.49693009      -0.67352337      -1.09151764        1 
H      -0.04764100       3.86956352       1.10538603        1 
H      -1.47336821       4.48178240       0.20807698        1 
