29
Lattice="0.0 0.0 0.0 0.0 0.0 0.0 0.0 0.0 0.0" Properties=species:S:1:pos:R:3:Z:I:1 pbc="F F F"
C      -0.89490994       0.07601211      -0.84500978        6 
C       0.32880410      -0.80645596      -0.42477974        6 
C      -0.86494857       1.58293077      -0.62284488        6 
C       1.65257284      -0.14077829      -0.10304788        6 
O      -0.73317641       1.92918584       0.65836695        8 
O      -1.09072137       2.37129298      -1.51489611        8 
O       2.65769195      -0.98729347      -0.44688589        8 
O       1.85003561       0.92537115       0.41897630        8 
C       3.99008013      -0.54068841      -0.13252322        6 
C      -0.68485818       3.33746725       0.93661586        6 
C      -1.99308277      -0.57344949       0.05973495        6 
C      -2.30219621      -2.00876498      -0.43351624        6 
C      -1.09256568      -2.80037405       0.15356687        6 
C      -0.26997700      -1.64431268       0.75773909        6 
O      -1.28770041      -0.79544979       1.28710304        8 
H      -1.11170888      -0.05326402      -1.90395956        1 
H       0.55173739      -1.48714830      -1.24674003        1 
H       4.20874710       0.39578159      -0.64757154        1 
H      -1.59353541       3.83151386       0.58884386        1 
H      -2.86004019       0.05695271       0.24290792        1 
H      -3.24858576      -2.36008496      -0.02076011        1 
H      -2.36709975      -2.06760430      -1.52183201        1 
H      -1.41134925      -3.47860333       0.94672490        1 
H      -0.54343271      -3.37827221      -0.59195745        1 
H       0.43760151      -1.91203630       1.53917870        1 
H       4.09958783      -0.39171218       0.94294512        1 
H       4.65030066      -1.33255457      -0.47925622        1 
H       0.18247189       3.78369894       0.44755854        1 
H      -0.59179417       3.41261113       2.01742152        1 
