29
Lattice="0.0 0.0 0.0 0.0 0.0 0.0 0.0 0.0 0.0" Properties=species:S:1:pos:R:3:Z:I:1 pbc="F F F"
C      -0.62460149       0.60589762      -0.77667151        6 
C      -0.57429976      -0.94661620      -0.49806156        6 
C       0.67266188       1.36884840      -0.59526832        6 
C       0.71086800      -1.51645543       0.08680882        6 
O       1.00186265       1.49966508       0.70407718        8 
O       1.33816637       1.80372025      -1.50295650        8 
O       1.78413753      -1.10801021      -0.61465099        8 
O       0.76979666      -2.29751563       1.00298750        8 
C       3.06250684      -1.60480850      -0.17821889        6 
C       2.25072584       2.15837458       0.97534531        6 
C      -1.77641586       1.02093053       0.19236423        6 
C      -3.12580907       0.63518370      -0.44948070        6 
C      -3.09678060      -0.91502466      -0.28209622        6 
C      -1.76355685      -1.10964176       0.47510913        6 
O      -1.66375186       0.08292362       1.26814673        8 
H      -0.90623894       0.77918299      -1.81440873        1 
H      -0.73327881      -1.48834259      -1.43501718        1 
H       3.24175154      -1.32678533       0.86143056        1 
H       2.23590270       3.18114172       0.59535505        1 
H      -1.70403850       2.03479946       0.57834172        1 
H      -3.94685719       1.07927235       0.11521223        1 
H      -3.21229803       0.95995523      -1.48815602        1 
H      -3.93259904      -1.26636284       0.32388837        1 
H      -3.11934082      -1.45257168      -1.23260392        1 
H      -1.69079722      -1.98455131       1.11379032        1 
H       3.09974084      -2.69136727      -0.27024379        1 
H       3.79173997      -1.13754426      -0.83591330        1 
H       3.07339441       1.61578316       0.50621778        1 
H       2.35238968       2.15192869       2.05816830        1 
