29
Lattice="0.0 0.0 0.0 0.0 0.0 0.0 0.0 0.0 0.0" Properties=species:S:1:pos:R:3:Z:I:1 pbc="F F F"
C      -0.54499468       0.65680951      -0.81541053        6 
C      -0.61722340      -0.87073078      -0.47484335        6 
C       0.74290515       1.42335346      -0.55523444        6 
C       0.61924180      -1.71011534      -0.20881695        6 
O       1.06622612       1.48489262       0.74509723        8 
O       1.34252760       2.01667053      -1.42209504        8 
O       1.77258259      -1.02839608      -0.19212645        8 
O       0.55759939      -2.91417277      -0.11283992        8 
C       2.97356069      -1.80660414      -0.02437923        6 
C       2.26717124       2.20423221       1.06215507        6 
C      -1.68936201       1.17272664       0.11642068        6 
C      -3.06220453       0.69724898      -0.42029522        6 
C      -3.07964113      -0.78678303       0.06206510        6 
C      -1.67153529      -0.89928855       0.67972174        6 
O      -1.51021417       0.38048359       1.29686892        8 
H      -0.76879743       0.82359806      -1.86758591        1 
H      -1.04774241      -1.38430581      -1.33904963        1 
H       2.96396817      -2.31007310       0.94304149        1 
H       2.20028067       3.23907356       0.72263977        1 
H      -1.62474691       2.22835156       0.36948706        1 
H      -3.86823431       1.27472218       0.03387866        1 
H      -3.14254713       0.79861855      -1.50444646        1 
H      -3.83569321      -0.94190843       0.83309455        1 
H      -3.25562820      -1.50711540      -0.73845600        1 
H      -1.52474004      -1.69439112       1.40584757        1 
H       3.05857839      -2.54932025      -0.81838788        1 
H       3.78973354      -1.09006871      -0.07853712        1 
H       3.12800277       1.72830119       0.58836629        1 
H       2.35357887       2.15948911       2.14560624        1 
