29
Lattice="0.0 0.0 0.0 0.0 0.0 0.0 0.0 0.0 0.0" Properties=species:S:1:pos:R:3:Z:I:1 pbc="F F F"
C       0.35763032       1.04135607       0.31872637        6 
C       0.55473655      -0.44359799       0.82835153        6 
C      -1.00770611       1.32396238      -0.27286264        6 
C      -0.60571357      -1.36669115       0.47176987        6 
O      -1.83383234       1.82459079       0.66356725        8 
O      -1.31551954       1.15785926      -1.42773192        8 
O      -0.23211621      -2.42200341      -0.26630251        8 
O      -1.73951605      -1.18576765       0.84944174        8 
C      -1.28422972      -3.32100417      -0.66769717        6 
C      -3.20974375       1.98431676       0.27127707        6 
C       1.52269066       1.15580641      -0.70360054        6 
C       2.82652626       1.42785497       0.07083321        6 
C       3.04356169       0.04389604       0.75643451        6 
C       1.89345776      -0.78794496       0.13745166        6 
O       1.71339855      -0.19207143      -1.15577315        8 
H       0.49241497       1.72571548       1.15666269        1 
H       0.62010261      -0.45822091       1.91855059        1 
H      -1.77069811      -3.75430534       0.20738020        1 
H      -3.63814556       1.00983642       0.03315765        1 
H       1.31271713       1.79948310      -1.55356849        1 
H       3.63377486       1.65512426      -0.62683754        1 
H       2.74039897       2.25589958       0.77730192        1 
H       4.01020292      -0.38687537       0.49349915        1 
H       2.98137329       0.09121020       1.84605447        1 
H       2.08577297      -1.85033253       0.02835516        1 
H      -2.02231996      -2.78820298      -1.26810810        1 
H      -0.79340412      -4.09125320      -1.25801170        1 
H      -3.28941665       2.64352187      -0.59420744        1 
H      -3.70837156       2.41940724       1.13452533        1 
