29
Lattice="0.0 0.0 0.0 0.0 0.0 0.0 0.0 0.0 0.0" Properties=species:S:1:pos:R:3:Z:I:1 pbc="F F F"
C      -0.38950908       0.49559914      -0.72858716        6 
C      -0.21767463      -0.97852235      -0.28454068        6 
C       0.43595946       1.53437697       0.03246052        6 
C       1.11849349      -1.65760436      -0.05737137        6 
O       0.01668440       2.77712484      -0.31642287        8 
O       1.34525897       1.34181891       0.79301506        8 
O       2.17095387      -0.92302164      -0.43587482        8 
O       1.19252869      -2.83543404       0.21440256        8 
C       3.45220606      -1.57682315      -0.39470814        6 
C       0.69540346       3.87055988       0.32660954        6 
C      -1.85897263       0.68657405      -0.22254758        6 
C      -2.84801426      -0.32649613      -0.85560067        6 
C      -2.61197026      -1.59563151       0.02626832        6 
C      -1.35134168      -1.14950687       0.78345950        6 
O      -1.70373408       0.20336222       1.12603268        8 
H      -0.26437655       0.64584241      -1.80131803        1 
H      -0.54226869      -1.56148437      -1.15527990        1 
H       3.67368177      -1.91202639       0.61905570        1 
H       1.76188752       3.84615529       0.09760021        1 
H      -2.19256531       1.71917302      -0.20996747        1 
H      -3.87220890       0.03851913      -0.77420373        1 
H      -2.63968850      -0.49750996      -1.91437810        1 
H      -3.43490689      -1.74835774       0.72595414        1 
H      -2.46807499      -2.51074240      -0.55070463        1 
H      -1.07552309      -1.70907462       1.67234275        1 
H       3.46592260      -2.43483237      -1.06920927        1 
H       4.16841379      -0.82248657      -0.71214300        1 
H       0.55972569       3.81708189       1.40793423        1 
H       0.23731833       4.77254379      -0.07352349        1 
