29
Lattice="0.0 0.0 0.0 0.0 0.0 0.0 0.0 0.0 0.0" Properties=species:S:1:pos:R:3:Z:I:1 pbc="F F F"
C       0.69283725      -0.72872482      -0.58716662        6 
C       0.40636730       0.81229411      -0.47544019        6 
C      -0.37371307      -1.73057833      -0.17696544        6 
C      -0.89363882       1.21883041       0.19413166        6 
O      -1.61999453      -1.25492682      -0.33946775        8 
O      -0.13020543      -2.87060223       0.13536501        8 
O      -1.72287179       1.80233546      -0.70184327        8 
O      -1.15717272       1.09811375       1.36319864        8 
C      -3.00271632       2.21373280      -0.19194360        6 
C      -2.69777516      -2.14474972       0.00873699        6 
C       1.99762154      -0.86577459       0.23823467        6 
C       3.18146594      -0.29396922      -0.57044389        6 
C       2.90616935       1.23717771      -0.45694016        6 
C       1.62374230       1.24335286       0.40329214        6 
O       1.81154816       0.11550234       1.26587430        8 
H       0.88123487      -0.97526710      -1.63738526        1 
H       0.43269893       1.27534847      -1.46047108        1 
H      -3.54758546       1.35339989       0.20052602        1 
H      -2.65176290      -2.38835972       1.07078881        1 
H       2.13907938      -1.84919424       0.67680746        1 
H       4.12590705      -0.56414765      -0.09689267        1 
H       3.20217886      -0.65530188      -1.60051154        1 
H       3.71330562       1.74878625       0.06906299        1 
H       2.76739240       1.72531604      -1.42387001        1 
H       1.45409207       2.13504817       1.00187917        1 
H      -2.88156283       2.95114401       0.60309034        1 
H      -3.52909512       2.64647047      -1.03997317        1 
H      -2.64109326      -3.06154274      -0.57911125        1 
H      -3.60927680      -1.59651618      -0.21845589        1 
