29
Lattice="0.0 0.0 0.0 0.0 0.0 0.0 0.0 0.0 0.0" Properties=species:S:1:pos:R:3:Z:I:1 pbc="F F F"
C       0.57975443      -0.80779153      -0.60918762        6 
C       0.44874156       0.75448927      -0.43567350        6 
C      -0.51441099      -1.62003951       0.06535169        6 
C      -0.85213163       1.24551252       0.16158110        6 
O      -1.55780399      -1.77658255      -0.78899089        8 
O      -0.51909672      -2.01795012       1.19776056        8 
O      -1.46865683       2.10030919      -0.69056848        8 
O      -1.29741730       0.95402554       1.24184002        8 
C      -2.72292365       2.64119449      -0.23545564        6 
C      -2.72519800      -2.41434274      -0.23595156        6 
C       1.94580638      -1.04147595       0.08847623        6 
C       3.08340972      -0.44225568      -0.77189029        6 
C       2.94409453       1.07701060      -0.44540174        6 
C       1.69398414       1.05716953       0.45879969        6 
O       1.87357012      -0.14494406       1.20451512        8 
H       0.59190596      -1.06479826      -1.66841924        1 
H       0.55326557       1.23234671      -1.40849949        1 
H      -3.44233397       1.83868395      -0.06494650        1 
H      -3.07763300      -1.86246493       0.63654547        1 
H       2.09821958      -2.05566878       0.44784050        1 
H       4.05058862      -0.83296458      -0.45336364        1 
H       2.96334424      -0.66602929      -1.83432911        1 
H       3.80306268       1.43962541       0.12095578        1 
H       2.82807421       1.70466977      -1.33109954        1 
H       1.57308752       1.89800589       1.13786402        1 
H      -2.58483866       3.20088656       0.69092532        1 
H      -3.06282589       3.29716021      -1.03380716        1 
H      -2.49817011      -3.44096844       0.05597879        1 
H      -3.46812840      -2.39997781      -1.03077825        1 
