29
Lattice="0.0 0.0 0.0 0.0 0.0 0.0 0.0 0.0 0.0" Properties=species:S:1:pos:R:3:Z:I:1 pbc="F F F"
C       0.56916785      -0.63513916      -0.83302968        6 
C       0.45842078       0.84783462      -0.34080743        6 
C      -0.40933962      -1.66677773      -0.26572728        6 
C      -0.89647386       1.39537298       0.05284382        6 
O      -1.56284252      -1.13790909       0.16996896        8 
O      -0.14909590      -2.84240698      -0.18193795        8 
O      -1.72436566       1.39434316      -1.01422799        8 
O      -1.17430912       1.89442094       1.11473071        8 
C      -3.05818972       1.87259972      -0.77954373        6 
C      -2.48391731      -2.04188345       0.81026207        6 
C       1.95385768      -0.97970816      -0.21998159        6 
C       3.07753731      -0.08378857      -0.79439704        6 
C       2.89501076       1.22470986       0.03676440        6 
C       1.56881048       0.90605750       0.74741759        6 
O       1.76345988      -0.47149791       1.11427636        8 
H       0.53935611      -0.71043085      -1.92198826        1 
H       0.75070651       1.47922879      -1.18570386        1 
H      -3.56098335       1.24118102      -0.04471866        1 
H      -1.99997657      -2.53928190       1.65117791        1 
H       2.16190834      -2.04418157      -0.18501371        1 
H       4.05408890      -0.53807775      -0.62515668        1 
H       2.96473842       0.07487199      -1.86959755        1 
H       3.69412995       1.34149753       0.77004121        1 
H       2.85021836       2.12792607      -0.57533179        1 
H       1.31115705       1.49366921       1.62357252        1 
H      -3.04157989       2.90190291      -0.41842275        1 
H      -3.56336258       1.81124991      -1.74118830        1 
H      -2.83815715      -2.78983011       0.09951910        1 
H      -3.30503057      -1.41742828       1.15497013        1 
