29
Lattice="0.0 0.0 0.0 0.0 0.0 0.0 0.0 0.0 0.0" Properties=species:S:1:pos:R:3:Z:I:1 pbc="F F F"
C       0.69085833      -0.66735845      -0.63699537        6 
C       0.41812506       0.87239149      -0.46152808        6 
C      -0.34864906      -1.72008692      -0.28844875        6 
C      -0.91034162       1.30252927       0.13726876        6 
O      -1.53894331      -1.23149751       0.07878726        8 
O      -0.11434559      -2.90161984      -0.39106600        8 
O      -1.77903921       1.63203849      -0.84744428        8 
O      -1.17091200       1.38069837       1.30949354        8 
C      -3.10134672       1.99736035      -0.41904571        6 
C      -2.55290843      -2.19321831       0.42777467        6 
C       1.97540601      -0.84473263       0.22602907        6 
C       3.18410462      -0.22907295      -0.51144154        6 
C       2.91349090       1.29251649      -0.30341522        6 
C       1.59234995       1.25138790       0.49176417        6 
O       1.74581581       0.07376777       1.29750657        8 
H       0.91920452      -0.87374776      -1.68562893        1 
H       0.50794311       1.36559883      -1.42948393        1 
H      -3.56165316       1.17256430       0.12773437        1 
H      -2.20447470      -2.83126361       1.24035334        1 
H       2.11171047      -1.85167407       0.61082583        1 
H       4.11462389      -0.53752881      -0.03362322        1 
H       3.22750474      -0.52379451      -1.56156058        1 
H       3.69707489       1.75501350       0.29837761        1 
H       2.82958360       1.85112462      -1.23773143        1 
H       1.38995990       2.10395969       1.13420867        1 
H      -3.06860277       2.87804028       0.22440467        1 
H      -3.65600063       2.20949609      -1.33063044        1 
H      -2.80397777      -2.80966827      -0.43648444        1 
H      -3.40999202      -1.60387457       0.74527803        1 
