29
Lattice="0.0 0.0 0.0 0.0 0.0 0.0 0.0 0.0 0.0" Properties=species:S:1:pos:R:3:Z:I:1 pbc="F F F"
C      -0.51560887       0.56625447      -0.87647548        6 
C      -0.39771920      -0.85232621      -0.26238960        6 
C       0.39130077       1.67782147      -0.34645103        6 
C       0.92769921      -1.54216570      -0.02583078        6 
O       1.29109616       1.27038412       0.55769963        8 
O       0.20764746       2.84109928      -0.62159907        8 
O       1.92819369      -1.00440370      -0.74564684        8 
O       1.01976545      -2.60524114       0.54339031        8 
C       3.17486910      -1.72255019      -0.73343510        6 
C       2.04131680       2.30806661       1.21470442        6 
C      -1.91686024       0.93045680      -0.28136355        6 
C      -3.02313377      -0.05806710      -0.72869443        6 
C      -2.80118699      -1.25148820       0.25382080        6 
C      -1.46294453      -0.82524589       0.88125780        6 
O      -1.69218667       0.57783962       1.09774392        8 
H      -0.48607007       0.57548694      -1.96582361        1 
H      -0.79462508      -1.52649655      -1.03366907        1 
H       3.57083603      -1.77895727       0.28154949        1 
H       1.36851924       2.96596500       1.76663399        1 
H      -2.16475931       1.98448511      -0.36149819        1 
H      -4.00868026       0.39112033      -0.60360562        1 
H      -2.91903522      -0.34280006      -1.77819536        1 
H      -3.57979798      -1.28719097       1.01741926        1 
H      -2.75215683      -2.22340350      -0.24079889        1 
H      -1.16703595      -1.31327981       1.80520743        1 
H       3.03853199      -2.73325466      -1.12147912        1 
H       3.84290956      -1.15067920      -1.37365517        1 
H       2.60191146       2.89431946       0.48551212        1 
H       2.71533950       1.79014273       1.89331938        1 
