29
Lattice="0.0 0.0 0.0 0.0 0.0 0.0 0.0 0.0 0.0" Properties=species:S:1:pos:R:3:Z:I:1 pbc="F F F"
C      -0.50471720       0.50852593      -0.80267608        6 
C      -0.45196865      -1.00436354      -0.32641552        6 
C       0.72682700       1.35341572      -0.48454716        6 
C       0.85504210      -1.52944695       0.24396871        6 
O       0.49845665       2.25861606       0.48527017        8 
O       1.79096902       1.23877477      -1.04191697        8 
O       1.79672048      -1.57024552      -0.70999597        8 
O       1.00667874      -1.96488646       1.36018773        8 
C       3.10208978      -2.02402635      -0.31113587        6 
C       1.61753878       3.08434718       0.85573667        6 
C      -1.79890420       0.95979546      -0.08141877        6 
C      -3.03184931       0.29074967      -0.73604058        6 
C      -2.95495408      -1.14611738      -0.13562104        6 
C      -1.64163921      -1.05121991       0.66496240        6 
O      -1.69337282       0.28647290       1.18148983        8 
H      -0.59868805       0.54092492      -1.88948279        1 
H      -0.64491487      -1.63535932      -1.19791920        1 
H       3.50064449      -1.38116326       0.47478979        1 
H       1.97222372       3.65548179      -0.00355718        1 
H      -1.87572796       2.03030421       0.07976654        1 
H      -3.94643150       0.80261609      -0.43480091        1 
H      -2.98188609       0.30367180      -1.82708305        1 
H      -3.78994758      -1.33784185       0.53977325        1 
H      -2.94106570      -1.93344784      -0.89232312        1 
H      -1.51109495      -1.75668311       1.48028565        1 
H       3.05622261      -3.05285542       0.04977427        1 
H       3.71590502      -1.95373037      -1.20581531        1 
H       2.43177135       2.46750364       1.23861096        1 
H       1.24192813       3.74673616       1.63214693        1 
