29
Lattice="0.0 0.0 0.0 0.0 0.0 0.0 0.0 0.0 0.0" Properties=species:S:1:pos:R:3:Z:I:1 pbc="F F F"
C      -0.30397286      -0.79303523       0.59263673        6 
C      -0.82565070       0.66458690       0.77862150        6 
C       1.20195615      -0.96710084       0.61125574        6 
C       0.07226749       1.81621959       0.35812731        6 
O       1.60461270      -1.95204987      -0.21567110        8 
O       1.94944547      -0.34618856       1.32547657        8 
O       0.95092078       1.48033803      -0.59696003        8 
O      -0.08304137       2.94483067       0.76235581        8 
C       1.79527513       2.53474297      -1.08930734        6 
C       3.01805820      -2.22966330      -0.22522441        6 
C      -1.12806148      -1.28731545      -0.63285643        6 
C      -2.51456808      -1.73045120      -0.12518697        6 
C      -3.12025114      -0.35208906       0.28629515        6 
C      -2.02859305       0.62224684      -0.22206794        6 
O      -1.45334954      -0.07579732      -1.33329031        8 
H      -0.61574565      -1.36778663       1.47288764        1 
H      -1.14810056       0.87375580       1.79681051        1 
H       1.19244851       3.35925306      -1.47168714        1 
H       3.35377817      -2.53740322       0.76615206        1 
H      -0.60789482      -1.97205347      -1.29435184        1 
H      -3.08067363      -2.18303873      -0.94071547        1 
H      -2.46513551      -2.44734455       0.69690014        1 
H      -4.06798648      -0.16150296      -0.21853210        1 
H      -3.28660649      -0.25921437       1.36152732        1 
H      -2.38196605       1.60167705      -0.53636680        1 
H       2.44549053       2.89823656      -0.29200897        1 
H       2.38214620       2.08550314      -1.88725441        1 
H       3.57476829      -1.34420495      -0.53469697        1 
H       3.14929825      -3.03613182      -0.94318867        1 
