29
Lattice="0.0 0.0 0.0 0.0 0.0 0.0 0.0 0.0 0.0" Properties=species:S:1:pos:R:3:Z:I:1 pbc="F F F"
C       0.67983919      -0.83160074      -0.78135130        6 
C       0.46865455       0.70639851      -0.58407926        6 
C      -0.34268849      -1.80114173      -0.18066629        6 
C      -0.94913882       1.23871199      -0.64320891        6 
O      -1.55940546      -1.27039893      -0.00448010        8 
O      -0.06002751      -2.93002359       0.14249241        8 
O      -1.27886349       1.96247195       0.44548056        8 
O      -1.68898248       1.06378154      -1.57888629        8 
C      -2.61180798       2.50639387       0.45500603        6 
C      -2.55102453      -2.12568363       0.59430079        6 
C       1.96268772      -0.99816886       0.07969345        6 
C       3.14227682      -0.15631235      -0.46190966        6 
C       2.80221574       1.26083609       0.09658642        6 
C       1.38697094       0.99944284       0.64202389        6 
O       1.55427211      -0.28600521       1.26463529        8 
H       0.81575348      -1.09688115      -1.83146306        1 
H       0.91741671       1.17955700      -1.46475965        1 
H      -2.75707497       3.17885276      -0.39180126        1 
H      -2.23431880      -2.43044616       1.59265399        1 
H       2.18691232      -2.03063104       0.32653970        1 
H       4.08968330      -0.52838576      -0.07083767        1 
H       3.19791742      -0.18343598      -1.55266614        1 
H       3.47239321       1.53409549       0.91302148        1 
H       2.83615151       2.04780349      -0.65980765        1 
H       0.99173559       1.71103935       1.35955762        1 
H      -3.34719858       1.70217771       0.40384325        1 
H      -2.69783368       3.04706281       1.39494282        1 
H      -2.71110179      -3.01159882      -0.02143362        1 
H      -3.45642331      -1.52473459       0.64186474        1 
