29
Lattice="0.0 0.0 0.0 0.0 0.0 0.0 0.0 0.0 0.0" Properties=species:S:1:pos:R:3:Z:I:1 pbc="F F F"
C       0.18184949       0.93725228       0.44697614        6 
C       0.75210220      -0.47416603       0.85085815        6 
C      -1.24267494       0.95177811      -0.06244352        6 
C      -0.23736193      -1.61736302       0.67570588        6 
O      -1.90700016       2.01912756       0.43437937        8 
O      -1.73454176       0.16538566      -0.83276423        8 
O      -0.07349292      -2.28227460      -0.47276738        8 
O      -1.04331591      -1.91744870       1.52625511        8 
C      -1.06183432      -3.28294621      -0.77400454        6 
C      -3.27580715       2.16209449       0.00672849        6 
C       1.20239598       1.35561925      -0.66510466        6 
C       2.51319079       1.80583606       0.01373449        6 
C       3.08334215       0.43140095       0.48183651        6 
C       2.00653160      -0.53938135      -0.05689227        6 
O       1.56434712       0.11054785      -1.25876864        8 
H       0.23253011       1.62375253       1.29041091        1 
H       1.00806789      -0.47162610       1.91063422        1 
H      -1.08704335      -4.04806007       0.00345993        1 
H      -3.85859709       1.29177658       0.31151604        1 
H       0.80157102       2.02605194      -1.42257085        1 
H       3.16863922       2.27855725      -0.71926200        1 
H       2.34919015       2.51297555       0.82868993        1 
H       4.04815409       0.22365722       0.01783306        1 
H       3.20480608       0.36188046       1.56467850        1 
H       2.34639945      -1.54376985      -0.29146837        1 
H      -2.04176673      -2.81189146      -0.86033442        1 
H      -0.75792595      -3.70950134      -1.72721998        1 
H      -3.32812886       2.26906069      -1.07771559        1 
H      -3.64052060       3.05998533       0.50042470        1 
