29
Lattice="0.0 0.0 0.0 0.0 0.0 0.0 0.0 0.0 0.0" Properties=species:S:1:pos:R:3:Z:I:1 pbc="F F F"
C      -0.52094267       0.56212653      -0.87083584        6 
C      -0.41684066      -0.86450418      -0.27532031        6 
C       0.43037998       1.64234565      -0.36648781        6 
C       0.91203931      -1.54616612      -0.03399950        6 
O       1.21228388       1.25150452       0.64830822        8 
O       0.37364948       2.78343024      -0.76373972        8 
O       1.91684380      -0.98098179      -0.72756485        8 
O       1.01027619      -2.61615439       0.52023360        8 
C       3.17315440      -1.68228521      -0.70980986        6 
C       2.00818966       2.27630348       1.26853942        6 
C      -1.90363870       0.95126922      -0.24845715        6 
C      -3.03476311      -0.00044058      -0.71493891        6 
C      -2.82968444      -1.22468029       0.23329053        6 
C      -1.48230677      -0.84085795       0.86876783        6 
O      -1.68303424       0.56114765       1.11869118        8 
H      -0.51751647       0.58298090      -1.95993719        1 
H      -0.81228874      -1.53273120      -1.05180553        1 
H       3.55626325      -1.74939972       0.30945018        1 
H       1.36826363       3.06897056       1.65823995        1 
H      -2.12767674       2.01299906      -0.30338162        1 
H      -4.00975529       0.46531279      -0.56929948        1 
H      -2.94368786      -0.25840004      -1.77248185        1 
H      -3.60683582      -1.26825402       0.99784971        1 
H      -2.80003091      -2.18262501      -0.28930377        1 
H      -1.19653334      -1.35580426       1.78126990        1 
H       3.05519999      -2.68835867      -1.11538411        1 
H       3.84162892      -1.09155466      -1.33218931        1 
H       2.71081852       2.69929709       0.54900291        1 
H       2.53898116       1.77892557       2.07724717        1 
