29
Lattice="0.0 0.0 0.0 0.0 0.0 0.0 0.0 0.0 0.0" Properties=species:S:1:pos:R:3:Z:I:1 pbc="F F F"
C       0.67687546      -0.82452519      -0.56322651        6 
C       0.37829633       0.71444560      -0.53029600        6 
C      -0.43312131      -1.72943278      -0.05561221        6 
C      -0.91831136       1.12205768       0.13366276        6 
O      -1.54558147      -1.56145490      -0.80401020        8 
O      -0.33791832      -2.52904352       0.83807817        8 
O      -1.46185276       2.17953769      -0.51255931        8 
O      -1.39334744       0.63891988       1.13017677        8 
C      -2.67027924       2.71218602       0.06170423        6 
C      -2.71394927      -2.27902208      -0.36433470        6 
C       1.96444791      -0.90697809       0.29104942        6 
C       3.16071489      -0.38715909      -0.53367830        6 
C       2.87520614       1.14643447      -0.53945682        6 
C       1.59378125       1.20890418       0.32211091        6 
O       1.77336901       0.14351764       1.25443292        8 
H       0.86146951      -1.12791086      -1.59725966        1 
H       0.39611751       1.14598272      -1.52943047        1 
H      -3.45658609       1.95560845       0.05928258        1 
H      -2.99326008      -1.95007045       0.63771004        1 
H       2.09733393      -1.85424937       0.80487937        1 
H       4.09661834      -0.61409247      -0.02155527        1 
H       3.20704761      -0.82187684      -1.53437600        1 
H       3.67973628       1.70570107      -0.06009284        1 
H       2.72617706       1.55582908      -1.54071778        1 
H       1.42453367       2.14328493       0.85355110        1 
H      -2.49419788       3.04173814       1.08669704        1 
H      -2.94563453       3.55288261      -0.57112755        1 
H      -2.52532368      -3.35336704      -0.35636151        1 
H      -3.49361959      -2.03224562      -1.08188795        1 
