29
Lattice="0.0 0.0 0.0 0.0 0.0 0.0 0.0 0.0 0.0" Properties=species:S:1:pos:R:3:Z:I:1 pbc="F F F"
C       0.63360471      -0.77420974      -0.74728250        6 
C       0.67395163       0.80909928      -0.68114592        6 
C      -0.74287280      -1.39573388      -0.58225715        6 
C      -0.67720070       1.49088582      -0.59120096        6 
O      -1.09481254      -1.56195715       0.70204910        8 
O      -1.43262979      -1.73690208      -1.51453574        8 
O      -1.19343758       1.46709441       0.64979416        8 
O      -1.23160672       1.99897400      -1.53643577        8 
C      -2.49871114       2.05444752       0.80172831        6 
C      -2.40358182      -2.10940906       0.93627089        6 
C       1.64160037      -1.11864515       0.38212152        6 
C       3.07351973      -0.78528593      -0.09822812        6 
C       3.08310981       0.76835897       0.04102543        6 
C       1.63741442       1.02303429       0.52240851        6 
O       1.38639741      -0.10669963       1.36273103        8 
H       0.98043562      -1.10478794      -1.72562164        1 
H       1.10874006       1.18704366      -1.60564543        1 
H      -2.46675358       3.12209939       0.57825044        1 
H      -2.49101687      -3.10313072       0.49416871        1 
H       1.50675908      -2.10173886       0.82570003        1 
H       3.81094880      -1.24917367       0.55778279        1 
H       3.26148306      -1.12889049      -1.11719686        1 
H       3.79309987       1.09394748       0.80261141        1 
H       3.32010936       1.28628377      -0.89006296        1 
H       1.47402969       1.94126235       1.08121156        1 
H      -3.21250106       1.57207073       0.13218020        1 
H      -2.76930717       1.88778008       1.84181622        1 
H      -3.16798446      -1.45897059       0.50773836        1 
H      -2.50513402      -2.15833682       2.01803176        1 
