29
Lattice="0.0 0.0 0.0 0.0 0.0 0.0 0.0 0.0 0.0" Properties=species:S:1:pos:R:3:Z:I:1 pbc="F F F"
C       0.14691739       1.05362657       0.33024590        6 
C       0.50814958      -0.40579305       0.74860156        6 
C      -1.27504072       1.35318821      -0.10109189        6 
C      -0.31884966      -1.48418363       0.04832217        6 
O      -2.14012019       1.00023902       0.86973517        8 
O      -1.58443682       1.97946999      -1.08420980        8 
O       0.32636157      -2.66969367       0.08479877        8 
O      -1.42563756      -1.35748826      -0.41078823        8 
C      -0.36497270      -3.78610527      -0.50716877        6 
C      -3.53529502       1.15600735       0.55795248        6 
C       1.27159539       1.38869976      -0.68432292        6 
C       2.48301141       1.89401038       0.11746455        6 
C       2.87474699       0.58674747       0.87481638        6 
C       1.95952500      -0.45764527       0.18950828        6 
O       1.73713407       0.09586929      -1.12015973        8 
H       0.26548239       1.68091192       1.22055598        1 
H       0.44067955      -0.57131056       1.82556621        1 
H      -1.29624835      -3.98386323       0.02611105        1 
H      -3.79903730       0.50367064      -0.27601050        1 
H       0.95038041       1.97859175      -1.53743286        1 
H       3.27696248       2.21152310      -0.56025954        1 
H       2.24222342       2.72640948       0.78153072        1 
H       3.92460847       0.33249369       0.72570308        1 
H       2.69529775       0.64622498       1.95097713        1 
H       2.37008361      -1.45803381       0.10392470        1 
H      -0.58549527      -3.58244796      -1.55554589        1 
H       0.31638864      -4.62890041      -0.41419416        1 
H      -3.76184303       2.19163198       0.30077822        1 
H      -4.06936729       0.85736349       1.45745291        1 
