29
Lattice="0.0 0.0 0.0 0.0 0.0 0.0 0.0 0.0 0.0" Properties=species:S:1:pos:R:3:Z:I:1 pbc="F F F"
C      -0.48660802       0.51747688      -0.65566756        6 
C      -0.35064238      -1.02234676      -0.41862258        6 
C       0.57870785       1.38769090      -0.00936600        6 
C       0.99045907      -1.53882999       0.07568074        6 
O       0.31765100       2.68902761      -0.26637602        8 
O       1.52988402       1.01963116       0.63094619        8 
O       1.93057455      -1.36338152      -0.87640105        8 
O       1.17895799      -2.12355073       1.11129942        8 
C       3.27272149      -1.72104327      -0.50233138        6 
C       1.24044613       3.64152433       0.29655649        6 
C      -1.85646211       0.76933212       0.04731131        6 
C      -2.99837106       0.08069954      -0.73802174        6 
C      -2.82944912      -1.40177698      -0.28471664        6 
C      -1.53548292      -1.29916437       0.54412188        6 
O      -1.71867078      -0.04008884       1.21996973        8 
H      -0.52203041       0.77400155      -1.71556454        1 
H      -0.50857711      -1.52804822      -1.37530652        1 
H       3.59944409      -1.09797344       0.33142069        1 
H       2.25020825       3.45761174      -0.07323138        1 
H      -2.03240917       1.80519634       0.32380475        1 
H      -3.96590959       0.48565694      -0.43874489        1 
H      -2.89648619       0.21444426      -1.81716369        1 
H      -3.65730596      -1.71713463       0.35204043        1 
H      -2.75167072      -2.10406545      -1.11711705        1 
H      -1.34707324      -2.08384049       1.27030872        1 
H       3.32500142      -2.77259215      -0.21661922        1 
H       3.88087175      -1.53224473      -1.38452505        1 
H       1.23826907       3.57394578       1.38536213        1 
H       0.88418185       4.61634362      -0.02873265        1 
