29
Lattice="0.0 0.0 0.0 0.0 0.0 0.0 0.0 0.0 0.0" Properties=species:S:1:pos:R:3:Z:I:1 pbc="F F F"
C      -0.23518748       0.64779723      -0.65948971        6 
C      -0.62717624      -0.81898791      -0.35119703        6 
C       0.95481114       1.21120620       0.10146421        6 
C       0.39621411      -1.90991264      -0.10885240        6 
O       1.31539454       2.39712052      -0.45218427        8 
O       1.50011001       0.73765494       1.06174827        8 
O       1.64677633      -1.55405007      -0.43465234        8 
O       0.07229404      -3.04834113       0.14197473        8 
C       2.64407763      -2.58860326      -0.35084057        6 
C       2.38955678       3.09336937       0.20476485        6 
C      -1.49600545       1.34790114      -0.04052702        6 
C      -2.79460661       0.92694118      -0.77476037        6 
C      -3.08734925      -0.45953298      -0.11873459        6 
C      -1.78765415      -0.65631666       0.68274725        6 
O      -1.58446220       0.66212619       1.21609501        8 
H      -0.11639455       0.84991649      -1.72297506        1 
H      -1.08302409      -1.20026295      -1.27312635        1 
H       2.70205972      -2.97452291       0.66746753        1 
H       3.28665576       2.47313723       0.23086067        1 
H      -1.37694645       2.41597957       0.12479841        1 
H      -3.59370447       1.64271748      -0.57941255        1 
H      -2.65509971       0.86856214      -1.85653576        1 
H      -3.94065023      -0.40396021       0.55863774        1 
H      -3.26859363      -1.25625569      -0.84208846        1 
H      -1.80309524      -1.39202063       1.48168432        1 
H       2.40616370      -3.40540813      -1.03420162        1 
H       3.57929020      -2.10923936      -0.63073185        1 
H       2.10619116       3.35525366       1.22564012        1 
H       2.56018369       3.99015018      -0.38714338        1 
