29
Lattice="0.0 0.0 0.0 0.0 0.0 0.0 0.0 0.0 0.0" Properties=species:S:1:pos:R:3:Z:I:1 pbc="F F F"
C       0.33911859      -0.65478781      -0.61291352        6 
C       0.65306992       0.86398721      -0.45762577        6 
C      -0.90321536      -1.14004364       0.10507554        6 
C      -0.48367794       1.77549207      -0.03602379        6 
O      -1.31295810      -2.31333046      -0.43169696        8 
O      -1.43861558      -0.62038388       1.05044588        8 
O      -1.57948832       1.53531835      -0.78655812        8 
O      -0.39122526       2.68539668       0.74807704        8 
C      -2.75248053       2.30204357      -0.46007056        6 
C      -2.43827098      -2.94162984       0.21058946        6 
C       1.58152116      -1.25073687       0.12824758        6 
C       2.86755126      -0.98017105      -0.68948308        6 
C       3.13507249       0.51859785      -0.34603144        6 
C       1.88180114       0.84779286       0.48930103        6 
O       1.70395062      -0.36451181       1.24303052        8 
H       0.29170513      -0.97714157      -1.65180445        1 
H       0.94457486       1.25394713      -1.43861855        1 
H      -3.08536345       2.05384457       0.54892099        1 
H      -3.30771055      -2.28320563       0.18516349        1 
H       1.45080282      -2.27356211       0.47540123        1 
H       3.67902832      -1.62167051      -0.34374897        1 
H       2.72548055      -1.16049583      -1.75707179        1 
H       4.03171687       0.62860926       0.26542850        1 
H       3.23976652       1.15417881      -1.22742983        1 
H       1.94360594       1.69952870       1.15996506        1 
H      -2.54460001       3.37075072      -0.52450484        1 
H      -3.50288676       2.01101399      -1.19216168        1 
H      -2.20046224      -3.18158042       1.24811724        1 
H      -2.62782640      -3.84885798      -0.35901429        1 
