29
Lattice="0.0 0.0 0.0 0.0 0.0 0.0 0.0 0.0 0.0" Properties=species:S:1:pos:R:3:Z:I:1 pbc="F F F"
C      -0.55148814       0.48368911      -0.84611610        6 
C      -0.47390907      -1.00914100      -0.31120618        6 
C       0.69855374       1.30633440      -0.56143041        6 
C       0.87037625      -1.39092600       0.27598666        6 
O       0.57586233       2.08639618       0.52255762        8 
O       1.69353522       1.26536695      -1.24699345        8 
O       1.72011391      -1.73157527      -0.71002470        8 
O       1.14905964      -1.41953059       1.44953771        8 
C       3.07973258      -1.99984646      -0.32278595        6 
C       1.73666149       2.85291197       0.89184820        6 
C      -1.82893756       0.95791107      -0.10922294        6 
C      -3.07016431       0.26480866      -0.72213819        6 
C      -2.97024531      -1.15609801      -0.08527591        6 
C      -1.64856769      -1.02569426       0.69932054        6 
O      -1.70451381       0.32583292       1.17101610        8 
H      -0.66304943       0.48217987      -1.93051881        1 
H      -0.65406176      -1.68749889      -1.14641845        1 
H       3.53293151      -1.09814469       0.09156093        1 
H       2.04027835       3.50775911       0.07388349        1 
H      -1.90475195       2.03382993       0.01930285        1 
H      -3.98166058       0.77747562      -0.41302238        1 
H      -3.04440274       0.24951055      -1.81381871        1 
H      -3.79600641      -1.33922932       0.60360383        1 
H      -2.95533181      -1.96213549      -0.82190059        1 
H      -1.50898332      -1.70147548       1.53872727        1 
H       3.11815829      -2.80264481       0.41472876        1 
H       3.58842794      -2.29097029      -1.23877728        1 
H       2.56080224       2.18558923       1.14805271        1 
H       1.43304254       3.43209154       1.76065923        1 
