29
Lattice="0.0 0.0 0.0 0.0 0.0 0.0 0.0 0.0 0.0" Properties=species:S:1:pos:R:3:Z:I:1 pbc="F F F"
C      -0.52554470       0.57706258      -0.85156207        6 
C      -0.47791616      -0.88256124      -0.32641406        6 
C       0.54171091       1.56845732      -0.41551639        6 
C       0.83052658      -1.60776816      -0.08843972        6 
O       1.11322958       1.26504220       0.75740374        8 
O       0.74823382       2.59974240      -1.01401873        8 
O       1.89377655      -0.96643946      -0.60330074        8 
O       0.87963013      -2.74060221       0.33104355        8 
C       3.14611542      -1.67515438      -0.56425366        6 
C       2.04159160       2.22970016       1.27943395        6 
C      -1.84884128       1.02494918      -0.14112181        6 
C      -3.05899671       0.20313099      -0.65539369        6 
C      -2.91567956      -1.11379132       0.17225073        6 
C      -1.54043318      -0.87407619       0.82103949        6 
O      -1.63837570       0.51249325       1.18219514        8 
H      -0.59486098       0.63736047      -1.93630700        1 
H      -0.88873899      -1.50540883      -1.13025326        1 
H       3.42805947      -1.89069762       0.46717786        1 
H       1.54485390       3.18706363       1.44435217        1 
H      -1.99405671       2.10214358      -0.10571519        1 
H      -3.99357744       0.71948703      -0.43428634        1 
H      -3.01516625       0.03854867      -1.73422841        1 
H      -3.68571238      -1.18218283       0.94209935        1 
H      -2.95214566      -2.01905253      -0.43655715        1 
H      -1.28910385      -1.47784425       1.68842827        1 
H       3.07219574      -2.61107585      -1.12006575        1 
H       3.86874792      -1.00758557      -1.02813818        1 
H       2.87358489       2.37220350       0.58769026        1 
H       2.39124972       1.81284950       2.22128160        1 
