29
Lattice="0.0 0.0 0.0 0.0 0.0 0.0 0.0 0.0 0.0" Properties=species:S:1:pos:R:3:Z:I:1 pbc="F F F"
C       0.52201751      -0.72171734      -0.78060756        6 
C       0.49391243       0.78644093      -0.34656486        6 
C      -0.47771241      -1.68459250      -0.12768483        6 
C      -0.80948242       1.44369028       0.05536883        6 
O      -1.71149762      -1.16762787      -0.00150709        8 
O      -0.19321139      -2.79719368       0.24111753        8 
O      -1.68861784       1.40828508      -0.96596561        8 
O      -0.98850434       2.07731566       1.06693501        8 
C      -2.96443013       2.02267724      -0.72508179        6 
C      -2.69205712      -2.01413446       0.62990073        6 
C       1.92009926      -1.09236373      -0.22077633        6 
C       3.04746003      -0.26707960      -0.88870601        6 
C       2.95887215       1.08087705      -0.10685499        6 
C       1.65862251       0.84570788       0.68163479        6 
O       1.81782832      -0.52008552       1.09753943        8 
H       0.42960316      -0.82888026      -1.86385757        1 
H       0.77932423       1.35920653      -1.23520299        1 
H      -3.47293649       1.52584117       0.10316727        1 
H      -2.36923851      -2.28275023       1.63630132        1 
H       2.09066610      -2.16088238      -0.14395190        1 
H       4.01295619      -0.75383401      -0.74858996        1 
H       2.88732534      -0.14707805      -1.96309558        1 
H       3.79707083       1.19438905       0.58212311        1 
H       2.92028019       1.96030891      -0.75308544        1 
H       1.46964764       1.48187463       1.54139853        1 
H      -2.84496135       3.08115674      -0.48919543        1 
H      -3.52727281       1.89597263      -1.64747069        1 
H      -2.84493542      -2.92211445       0.04479174        1 
H      -3.60379776      -1.42182308       0.66355623        1 
