29
Lattice="0.0 0.0 0.0 0.0 0.0 0.0 0.0 0.0 0.0" Properties=species:S:1:pos:R:3:Z:I:1 pbc="F F F"
C       0.01879636       0.98072192       0.50037252        6 
C       0.81145632      -0.34985492       0.76522666        6 
C      -1.35017126       0.79116591      -0.11726906        6 
C      -0.04487457      -1.59757980       0.62636178        6 
O      -2.24046072       1.64702583       0.42970193        8 
O      -1.62024752       0.03191958      -1.01376664        8 
O       0.41090931      -2.45144043      -0.30037252        8 
O      -1.01563748      -1.80256533       1.31594178        8 
C      -0.40154859      -3.61727325      -0.53716473        6 
C      -3.57887667       1.57920638      -0.09900271        6 
C       0.97492151       1.66624190      -0.52542228        6 
C       2.23976204       2.16308546       0.21238715        6 
C       3.01106581       0.82223993       0.41382914        6 
C       2.01532386      -0.18564928      -0.19951436        6 
O       1.45660487       0.56101363      -1.29214360        8 
H      -0.09010578       1.57433172       1.40586350        1 
H       1.14291419      -0.35709670       1.80656030        1 
H      -0.48985718      -4.21415742       0.37177234        1 
H      -3.98792192       0.57811438       0.04292039        1 
H       0.49358057       2.38871017      -1.18131243        1 
H       2.79900258       2.85516493      -0.41850193        1 
H       2.00261317       2.67128900       1.14909379        1 
H       3.94621152       0.81546712      -0.14757102        1 
H       3.24099780       0.60877399       1.45968996        1 
H       2.43609390      -1.11516472      -0.56909683        1 
H      -1.39376790      -3.31321696      -0.87224192        1 
H       0.11382144      -4.17415925      -1.31636139        1 
H      -3.58214297       1.82253702      -1.16271347        1 
H      -4.15069602       2.31266963       0.46495931        1 
