29
Lattice="0.0 0.0 0.0 0.0 0.0 0.0 0.0 0.0 0.0" Properties=species:S:1:pos:R:3:Z:I:1 pbc="F F F"
C      -0.58417420       0.47648523      -0.87196115        6 
C      -0.44005104      -0.99515546      -0.29767167        6 
C       0.64041776       1.34243935      -0.61129530        6 
C       0.93091993      -1.28208310       0.27838389        6 
O       0.54115072       2.06998423       0.50658485        8 
O       1.59431147       1.37410123      -1.35536482        8 
O       1.70943716      -1.87263471      -0.65017862        8 
O       1.30002374      -1.01730305       1.39585287        8 
C       3.08527725      -2.08772144      -0.28341323        6 
C       1.69503153       2.85166775       0.86578235        6 
C      -1.87264901       0.92051453      -0.13602231        6 
C      -3.08855139       0.15458560      -0.71224379        6 
C      -2.92460766      -1.23689914      -0.02466728        6 
C      -1.59920874      -1.02321150       0.73644481        6 
O      -1.70943208       0.33816282       1.16279881        8 
H      -0.70068318       0.44336557      -1.95488522        1 
H      -0.60876776      -1.70921473      -1.10342682        1 
H       3.57574402      -1.13083946      -0.09942388        1 
H       1.94484162       3.55594248       0.07090871        1 
H      -1.99298983       1.99629575      -0.04157781        1 
H      -4.01890228       0.63955063      -0.41495187        1 
H      -3.06986615       0.09983188      -1.80278350        1 
H      -3.73274008      -1.42529106       0.68337883        1 
H      -2.88682811      -2.06954324      -0.73004075        1 
H      -1.42278396      -1.66353224       1.59709797        1 
H       3.15113527      -2.71017090       0.60995976        1 
H       3.53665414      -2.58825352      -1.13691627        1 
H       2.54602320       2.19541475       1.05293773        1 
H       1.41296919       3.37641004       1.77538390        1 
