29
Lattice="0.0 0.0 0.0 0.0 0.0 0.0 0.0 0.0 0.0" Properties=species:S:1:pos:R:3:Z:I:1 pbc="F F F"
C      -0.66760972       0.66575811       0.57306185        6 
C       0.84239158       0.28014702       0.66237441        6 
C      -1.55199419      -0.36753533      -0.09574453        6 
C       1.11649220      -1.20913428       0.55691634        6 
O      -2.80326448      -0.30759110       0.41385975        8 
O      -1.23223222      -1.10506013      -0.99233977        8 
O       2.16702309      -1.48920016      -0.23235113        8 
O       0.48657611      -2.04292478       1.16074591        8 
C       2.47552930      -2.88791822      -0.39416832        6 
C      -3.76049582      -1.21302225      -0.16763956        6 
C      -0.56181540       1.90510892      -0.37547038        6 
C       0.12947401       3.07586840       0.36283400        6 
C       1.62450208       2.63465703       0.29415664        6 
C       1.48512192       1.24768143      -0.36780690        6 
O       0.42805724       1.47662040      -1.31428993        8 
H      -1.09552218       0.92500951       1.53924216        1 
H       1.19609873       0.53041429       1.66829991        1 
H       2.72956423      -3.33668197       0.56720818        1 
H      -3.41777874      -2.24311499      -0.06225182        1 
H      -1.48437050       2.15610075      -0.89511615        1 
H      -0.03731375       4.01219189      -0.17145497        1 
H      -0.23995697       3.19943855       1.38304714        1 
H       2.20309946       3.29948163      -0.34862545        1 
H       2.11039904       2.59294562       1.27102756        1 
H       2.36158362       0.86132954      -0.87725305        1 
H       1.62024590      -3.41010707      -0.82418433        1 
H       3.32635931      -2.91895627      -1.07099353        1 
H      -3.90484137      -0.98853871      -1.22584018        1 
H      -4.68286396      -1.05530790       0.38711169        1 
