29
Lattice="0.0 0.0 0.0 0.0 0.0 0.0 0.0 0.0 0.0" Properties=species:S:1:pos:R:3:Z:I:1 pbc="F F F"
C      -0.47517562      -0.82119847       0.40701682        6 
C      -0.60308384       0.71842192       0.71581262        6 
C       0.85505816      -1.34322401      -0.10101855        6 
C       0.43797688       1.68685463       0.15812351        6 
O       1.69731582      -1.56033970       0.93136478        8 
O       1.10988157      -1.63014701      -1.24383254        8 
O       1.66862484       1.15817013       0.07453271        8 
O       0.18900593       2.83134220      -0.13271003        8 
C       2.69651188       2.01968317      -0.45270082        6 
C       3.00980715      -2.02786571       0.58081982        6 
C      -1.65662644      -1.02699269      -0.58344181        6 
C      -2.95489028      -1.17475097       0.23195606        6 
C      -3.11577919       0.27843058       0.77449332        6 
C      -1.96741535       1.00893967       0.03918666        6 
O      -1.82676430       0.26752691      -1.18253972        8 
H      -0.65750135      -1.36150413       1.33837424        1 
H      -0.62678817       0.89205960       1.79520109        1 
H       2.43463999       2.34507436      -1.45979360        1 
H       3.50779806      -1.30448721      -0.06695953        1 
H      -1.47074493      -1.76798514      -1.35533763        1 
H      -3.78054663      -1.44496253      -0.42808836        1 
H      -2.88538301      -1.92881391       1.01874226        1 
H      -4.07947233       0.70662902       0.49714830        1 
H      -3.01933606       0.34313645       1.86067514        1 
H      -2.12944988       2.05961083      -0.17966433        1 
H       2.82660277       2.89155399       0.18963529        1 
H       3.59995641       1.41460493      -0.46785099        1 
H       2.95109566      -2.98782082       0.06526772        1 
H       3.54465537      -2.13024491       1.52250710        1 
