29
Lattice="0.0 0.0 0.0 0.0 0.0 0.0 0.0 0.0 0.0" Properties=species:S:1:pos:R:3:Z:I:1 pbc="F F F"
C       0.66070545      -0.74686626      -0.64236708        6 
C       0.45803101       0.80380010      -0.43792600        6 
C      -0.42743024      -1.65879330      -0.09493546        6 
C      -0.85588399       1.21288595       0.19501011        6 
O      -1.64599963      -1.26481938      -0.51901604        8 
O      -0.23923875      -2.64708936       0.56675906        8 
O      -1.66560946       1.79232294      -0.71795882        8 
O      -1.14524248       1.08789000       1.35883958        8 
C      -2.96769888       2.17721131      -0.24446510        6 
C      -2.76696823      -2.02486678      -0.02843116        6 
C       2.00657132      -0.96370162       0.08559165        6 
C       3.15343584      -0.31949355      -0.72627063        6 
C       2.94891538       1.19098223      -0.39600820        6 
C       1.67916167       1.12447888       0.47722379        6 
O       1.87252480      -0.08778275       1.21340278        8 
H       0.72729056      -0.96961811      -1.71107795        1 
H       0.53426650       1.31506746      -1.39674537        1 
H      -3.51134536       1.30213411       0.11579107        1 
H      -2.83953371      -1.92187099       1.05521355        1 
H       2.16387612      -1.98267408       0.42594466        1 
H       4.11980955      -0.67954717      -0.37129256        1 
H       3.08408878      -0.54018845      -1.79388563        1 
H       3.78168726       1.58342379       0.18920441        1 
H       2.82884327       1.81773153      -1.28193446        1 
H       1.52165778       1.94937015       1.16738949        1 
H      -2.88409829       2.90410061       0.56481948        1 
H      -3.47247618       2.61451348      -1.10312130        1 
H      -2.65848913      -3.07823937      -0.28854724        1 
H      -3.64132991      -1.59692403      -0.51413645        1 
