29
Lattice="0.0 0.0 0.0 0.0 0.0 0.0 0.0 0.0 0.0" Properties=species:S:1:pos:R:3:Z:I:1 pbc="F F F"
C       0.79234999      -0.74734359      -0.73284227        6 
C       0.43723532       0.77563916      -0.65838490        6 
C      -0.25330528      -1.76660233      -0.31863093        6 
C      -1.04719353       1.08990016      -0.67604074        6 
O      -1.18425432      -1.27106630       0.51045246        8 
O      -0.18702876      -2.93161088      -0.63323436        8 
O      -1.43085552       1.88219682       0.34045419        8 
O      -1.79031530       0.71410094      -1.55035210        8 
C      -2.82864804       2.22509757       0.37589386        6 
C      -2.17706661      -2.19627776       0.98754935        6 
C       1.94316946      -0.79402975       0.32227279        6 
C       3.17640071      -0.02073511      -0.20019059        6 
C       2.74290871       1.45439748       0.06073132        6 
C       1.29555978       1.24399009       0.55070179        6 
O       1.42536348       0.05690060       1.35209688        8 
H       1.13668813      -1.04733465      -1.72109650        1 
H       0.80278080       1.24820700      -1.57542153        1 
H      -3.11233836       2.76869688      -0.52638439        1 
H      -1.70529609      -3.00250266       1.55083275        1 
H       2.14210670      -1.78684900       0.71922786        1 
H       4.06503808      -0.28696167       0.37324209        1 
H       3.37769602      -0.23129894      -1.25238308        1 
H       3.34255219       1.90864290       0.85060786        1 
H       2.80614957       2.08852337      -0.82586452        1 
H       0.86133040       2.04349462       1.14150355        1 
H      -3.43565272       1.32230547       0.45638690        1 
H      -2.95115262       2.85049442       1.25736483        1 
H      -2.73618079      -2.61596865       0.15026160        1 
H      -2.82998979      -1.61144349       1.63163507        1 
