29
Lattice="0.0 0.0 0.0 0.0 0.0 0.0 0.0 0.0 0.0" Properties=species:S:1:pos:R:3:Z:I:1 pbc="F F F"
C       0.59875094       0.88068688       0.45411020        6 
C       0.54048640      -0.63708796       0.82767034        6 
C      -0.64433749       1.71924923       0.21986852        6 
C      -0.71118029      -1.45370817       0.54652383        6 
O      -1.79531663       1.03285137       0.20047823        8 
O      -0.59058390       2.92621833       0.15906427        8 
O      -1.07794937      -1.44000678      -0.74264847        8 
O      -1.23152825      -2.15925406       1.38093229        8 
C      -2.22864346      -2.22795590      -1.08259242        6 
C      -3.00210702       1.80765623       0.06216782        6 
C       1.63861724       0.89659553      -0.71472573        6 
C       3.05236261       0.83632888      -0.10280418        6 
C       3.06455424      -0.62725376       0.43900180        6 
C       1.70498208      -1.15466336      -0.08302557        6 
O       1.50642024      -0.40666840      -1.28839008        8 
H       1.04683046       1.40539666       1.30260114        1 
H       0.75089884      -0.78536257       1.88511761        1 
H      -2.07132449      -3.27606536      -0.82317314        1 
H      -2.99691158       2.34929324      -0.88441113        1 
H       1.46800443       1.66337376      -1.46570742        1 
H       3.80115212       0.97396005      -0.88418575        1 
H       3.21855338       1.59116709       0.66728241        1 
H       3.88500362      -1.20516557       0.01217697        1 
H       3.14140049      -0.68435385       1.52670201        1 
H       1.66801078      -2.21973193      -0.30064611        1 
H      -3.11039298      -1.85833648      -0.55540282        1 
H      -2.35014881      -2.11229759      -2.15747825        1 
H      -3.09481937       2.51764894       0.88488668        1 
H      -3.81271898       1.08297195       0.08659980        1 
