29
Lattice="0.0 0.0 0.0 0.0 0.0 0.0 0.0 0.0 0.0" Properties=species:S:1:pos:R:3:Z:I:1 pbc="F F F"
C      -0.58509855       0.45875921      -0.84491290        6 
C      -0.36201829      -1.01768291      -0.32071439        6 
C       0.59111869       1.37916168      -0.54353353        6 
C       1.01150692      -1.26027661       0.27071331        6 
O       0.29160502       2.36194055       0.31474678        8 
O       1.67727699       1.24434479      -1.05821888        8 
O       1.79880570      -1.90359120      -0.61148506        8 
O       1.36203350      -0.94051051       1.38015260        8 
C       3.17280035      -2.08072936      -0.21855322        6 
C       1.38032696       3.22862115       0.68879117        6 
C      -1.90646830       0.80668666      -0.12201550        6 
C      -3.06795361      -0.02482763      -0.72017548        6 
C      -2.83007016      -1.41204842      -0.04772573        6 
C      -1.51863587      -1.13483656       0.71389903        6 
O      -1.70751944       0.21057153       1.16761838        8 
H      -0.68542376       0.45377029      -1.93198844        1 
H      -0.49194472      -1.71804622      -1.14515821        1 
H       3.64890023      -1.10735782      -0.09359385        1 
H       1.80127300       3.71509908      -0.19210416        1 
H      -2.09538734       1.86974275      -0.00934645        1 
H      -4.02965760       0.40059040      -0.43140801        1 
H      -3.03159847      -0.06602760      -1.81107537        1 
H      -3.62644856      -1.65186264       0.65819041        1 
H      -2.74570028      -2.23397158      -0.76149618        1 
H      -1.30183011      -1.77938458       1.56192616        1 
H       3.23601280      -2.64239298       0.71442323        1 
H       3.63746112      -2.63217577      -1.03277417        1 
H       2.15626011       2.65153728       1.19297898        1 
H       0.94538866       3.96035430       1.36543528        1 
