29
Lattice="0.0 0.0 0.0 0.0 0.0 0.0 0.0 0.0 0.0" Properties=species:S:1:pos:R:3:Z:I:1 pbc="F F F"
C      -0.57259151       0.40773159      -0.69611987        6 
C      -0.13492026      -1.06760139      -0.39190356        6 
C       0.31427261       1.49422751      -0.10079739        6 
C       1.27367812      -1.28428490       0.13435257        6 
O      -0.31630648       2.68706445      -0.14096205        8 
O       1.43653136       1.35799880       0.31575062        8 
O       2.16473831      -1.15543288      -0.87013205        8 
O       1.56067584      -1.61755175       1.25547677        8 
C       3.54967532      -1.21189033      -0.48634185        6 
C       0.41837069       3.80771356       0.38885656        6 
C      -1.97582753       0.41045303      -0.02816806        6 
C      -2.94101132      -0.53965889      -0.77658153        6 
C      -2.48620597      -1.92988055      -0.23585566        6 
C      -1.25318378      -1.51923731       0.58893761        6 
O      -1.69491366      -0.28809878       1.19162054        8 
H      -0.62674337       0.60002871      -1.77036007        1 
H      -0.18878951      -1.63751512      -1.32236045        1 
H       3.77487392      -0.38813473       0.19251634        1 
H       1.32169845       3.98297850      -0.19763853        1 
H      -2.36404341       1.40085077       0.18806551        1 
H      -3.97479399      -0.32125437      -0.50635908        1 
H      -2.85217311      -0.44825883      -1.86160845        1 
H      -3.24424974      -2.36763689       0.41512993        1 
H      -2.25281374      -2.64847086      -1.02398342        1 
H      -0.92027700      -2.20509632       1.36219523        1 
H       3.77543763      -2.16136455       0.00114217        1 
H       4.11278080      -1.11212432      -1.41192897        1 
H       0.69300897       3.62215738       1.42783705        1 
H      -0.25758951       4.65654879       0.31490667        1 
