29
Lattice="0.0 0.0 0.0 0.0 0.0 0.0 0.0 0.0 0.0" Properties=species:S:1:pos:R:3:Z:I:1 pbc="F F F"
C       0.47684322       0.91357087       0.38074200        6 
C       0.60442050      -0.58122767       0.82335830        6 
C      -0.89317828       1.41909376      -0.02359582        6 
C      -0.44734999      -1.58509006       0.37912464        6 
O      -1.77325244       1.23760733       0.98543006        8 
O      -1.15973676       1.99217406      -1.04921659        8 
O      -1.30317562      -1.10938760      -0.53668157        8 
O      -0.44085433      -2.73419780       0.75431868        8 
C      -2.23788638      -2.04786197      -1.09925148        6 
C      -3.13025997       1.62673101       0.71288366        6 
C       1.56469058       1.01859060      -0.72250436        6 
C       2.92779462       1.22719194      -0.03725533        6 
C       3.12236788      -0.16697010       0.63527362        6 
C       1.91832017      -0.95274905       0.06378022        6 
O       1.68413348      -0.33194143      -1.20703663        8 
H       0.75157931       1.53774626       1.23676504        1 
H       0.70894337      -0.69241448       1.90220277        1 
H      -1.70610230      -2.88973214      -1.54368761        1 
H      -3.52588831       1.04303420      -0.12034680        1 
H       1.30929357       1.68621218      -1.53973198        1 
H       3.69790818       1.41509315      -0.78644642        1 
H       2.92829362       2.05663996       0.67308921        1 
H       4.05977173      -0.63345705       0.33058637        1 
H       3.10721548      -0.12571459       1.72647534        1 
H       2.06738024      -2.02244760      -0.05983483        1 
H      -2.91788768      -2.41445968      -0.32865516        1 
H      -2.77943106      -1.49081689      -1.86044250        1 
H      -3.18600524       2.68805540       0.46702474        1 
H      -3.68382213       1.41402248       1.62490432        1 
