29
Lattice="0.0 0.0 0.0 0.0 0.0 0.0 0.0 0.0 0.0" Properties=species:S:1:pos:R:3:Z:I:1 pbc="F F F"
C      -0.79827946      -0.21700303      -0.79018808        6 
C       0.68575391      -0.60164535      -0.53006217        6 
C      -1.23233178       1.08730055      -0.11684023        6 
C       1.69773100       0.52743102      -0.55133804        6 
O      -2.58236466       1.14385191      -0.04961286        8 
O      -0.52079480       1.98718207       0.24452184        8 
O       2.58674154       0.43673378       0.45811996        8 
O       1.72776399       1.38190942      -1.39972381        8 
C       3.57852971       1.48047602       0.50970408        6 
C      -3.13468798       2.33977176       0.53105418        6 
C      -1.47168422      -1.38107824      -0.00478675        6 
C      -1.07423149      -2.77221377      -0.55802319        6 
C       0.32810446      -2.98426898       0.09594005        6 
C       0.56277139      -1.57909871       0.67823515        6 
O      -0.73550193      -1.28846509       1.23109625        8 
H      -1.05897644      -0.17300851      -1.84822743        1 
H       1.00021656      -1.19058980      -1.40021276        1 
H       4.18522732       1.47539178      -0.39698461        1 
H      -2.85017642       3.21470069      -0.05543036        1 
H      -2.53022236      -1.23679781       0.18350999        1 
H      -1.78846798      -3.53056065      -0.23564644        1 
H      -1.04283825      -2.78643652      -1.65020890        1 
H       0.28155065      -3.72083820       0.89958769        1 
H       1.09822414      -3.29213437      -0.61446179        1 
H       1.32546777      -1.47560633       1.44261088        1 
H       3.09283762       2.45123167       0.61448821        1 
H       4.18866244       1.25741477       1.38228268        1 
H      -2.78044790       2.46188776       1.55548638        1 
H      -4.21320362       2.19882337       0.51242931        1 
