29
Lattice="0.0 0.0 0.0 0.0 0.0 0.0 0.0 0.0 0.0" Properties=species:S:1:pos:R:3:Z:I:1 pbc="F F F"
C      -0.53473441       0.58490457      -0.84377208        6 
C      -0.48250098      -0.88098835      -0.33364427        6 
C       0.54508804       1.55727861      -0.39819313        6 
C       0.84111816      -1.56251113      -0.05958879        6 
O       1.12553995       1.21764151       0.76176096        8 
O       0.76218927       2.59725421      -0.97645785        8 
O       1.86171484      -0.98230579      -0.71818560        8 
O       0.93536143      -2.62426809       0.50892086        8 
C       3.13239358      -1.65373928      -0.64240621        6 
C       2.07000145       2.15823776       1.29951380        6 
C      -1.85370334       1.02883190      -0.12505134        6 
C      -3.06756824       0.22646547      -0.65932089        6 
C      -2.92753726      -1.11235861       0.13251107        6 
C      -1.55652966      -0.89186471       0.79799680        6 
O      -1.65091707       0.48814174       1.18789638        8 
H      -0.60643704       0.65947159      -1.92736670        1 
H      -0.86124290      -1.50945824      -1.14936145        1 
H       3.47740455      -1.69569611       0.39182745        1 
H       1.58827774       3.11984786       1.48251757        1 
H      -1.99092834       2.10622731      -0.06852433        1 
H      -3.99951102       0.74023437      -0.42160936        1 
H      -3.02692498       0.09156693      -1.74232604        1 
H      -3.70258655      -1.20297127       0.89486202        1 
H      -2.96023694      -2.00035955      -0.50164073        1 
H      -1.31413105      -1.51495701       1.65400112        1 
H       3.05218979      -2.66824431      -1.03551160        1 
H       3.81011437      -1.05713365      -1.24887708        1 
H       2.90283913       2.29993147       0.60858870        1 
H       2.41446271       1.71887260       2.23295329        1 
