29
Lattice="0.0 0.0 0.0 0.0 0.0 0.0 0.0 0.0 0.0" Properties=species:S:1:pos:R:3:Z:I:1 pbc="F F F"
C      -0.80708854       0.62087634      -0.83015715        6 
C      -0.18198958      -0.75958688      -0.47949908        6 
C      -0.18110580       1.89431175      -0.24141956        6 
C       1.31941539      -0.94175861      -0.54792207        6 
O       1.09227734       1.75723413       0.14031722        8 
O      -0.82333101       2.90064298      -0.05137140        8 
O       1.72673212      -1.91419270       0.30031002        8 
O       2.06052356      -0.36146038      -1.29808517        8 
C       3.12789481      -2.24360813       0.25033817        6 
C       1.68602471       2.89626445       0.79011898        6 
C      -2.13607164       0.45624981      -0.03035247        6 
C      -2.96182455      -0.77282768      -0.48731980        6 
C      -2.24723614      -1.93844296       0.26779421        6 
C      -1.00444804      -1.19041567       0.77881911        6 
O      -1.59059363       0.03850236       1.23984814        8 
H      -0.94776611       0.76237450      -1.90277236        1 
H      -0.48976643      -1.42655514      -1.29697449        1 
H       3.40322071      -2.59140133      -0.74668390        1 
H       1.13973823       3.13496714       1.70379092        1 
H      -2.68773029       1.38222241       0.08994350        1 
H      -4.00258063      -0.66941745      -0.17923711        1 
H      -2.94738866      -0.89689788      -1.57286975        1 
H      -2.84556979      -2.28887802       1.11003166        1 
H      -2.00900219      -2.79278052      -0.36925507        1 
H      -0.43240729      -1.65768184       1.57386566        1 
H       3.73280316      -1.37221948       0.50470804        1 
H       3.26612420      -3.03443591       0.98424269        1 
H       1.67603181       3.76129458       0.12599540        1 
H       2.70727741       2.59734464       1.01480856        1 
