29
Lattice="0.0 0.0 0.0 0.0 0.0 0.0 0.0 0.0 0.0" Properties=species:S:1:pos:R:3:Z:I:1 pbc="F F F"
C       0.50107560       0.89280235       0.35862185        6 
C       0.53289402      -0.58287637       0.84558584        6 
C      -0.80118362       1.62370652       0.10460914        6 
C      -0.57505750      -1.53891944       0.43874675        6 
O      -1.87710743       0.97571570       0.58287456        8 
O      -0.84023356       2.75840250      -0.31044566        8 
O      -1.09886843      -1.27294019      -0.76592429        8 
O      -0.85485075      -2.52102249       1.08797771        8 
C      -2.07285260      -2.20877780      -1.25646412        6 
C      -3.13365428       1.67388355       0.50183372        6 
C       1.56598474       0.90358551      -0.78398502        6 
C       2.94932212       1.07354393      -0.12804685        6 
C       3.07022689      -0.29201524       0.62003279        6 
C       1.82499497      -1.04540617       0.08728948        6 
O       1.61781197      -0.46670569      -1.20765295        8 
H       0.90380682       1.49765342       1.17964354        1 
H       0.63601003      -0.66616205       1.92587226        1 
H      -1.62685622      -3.19763784      -1.37472426        1 
H      -3.37872537       1.89323937      -0.53821387        1 
H       1.33340487       1.55421382      -1.62215867        1 
H       3.71757203       1.17241230      -0.89625067        1 
H       3.00766424       1.94026193       0.53285969        1 
H       3.98265537      -0.82211190       0.34535941        1 
H       3.05665689      -0.18983862       1.70716997        1 
H       1.93066024      -2.12459658       0.00095932        1 
H      -2.91813591      -2.27725980      -0.56964009        1 
H      -2.39036515      -1.81594533      -2.21988668        1 
H      -3.08938568       2.60649233       1.06601507        1 
H      -3.86697552       0.99673834       0.93410976        1 
