29
Lattice="0.0 0.0 0.0 0.0 0.0 0.0 0.0 0.0 0.0" Properties=species:S:1:pos:R:3:Z:I:1 pbc="F F F"
C       0.72645505      -0.83757531      -0.60739865        6 
C       0.58134506       0.72232317      -0.80624887        6 
C      -0.53669180      -1.65210229      -0.42451257        6 
C      -0.83277304       1.26634625      -0.67296918        6 
O      -1.30905476      -1.20003931       0.57918038        8 
O      -0.80730695      -2.62326587      -1.09011336        8 
O      -1.12349018       1.69717974       0.56246085        8 
O      -1.58724230       1.37103512      -1.61282340        8 
C      -2.46285285       2.17547784       0.76457972        6 
C      -2.53486533      -1.91819913       0.81280751        6 
C       1.69516918      -0.88643302       0.61835825        6 
C       3.12566390      -0.59119568       0.11852607        6 
C       3.02055274       0.93896435      -0.16719993        6 
C       1.56870511       1.22905610       0.28003633        6 
O       1.36762841       0.29467113       1.34986985        8 
H       1.20293354      -1.27356506      -1.48398788        1 
H       0.89757227       0.98868831      -1.81454900        1 
H      -2.66878028       3.03337307       0.12246256        1 
H      -2.32765503      -2.96452098       1.04096380        1 
H       1.58311273      -1.76172130       1.25459713        1 
H       3.84781854      -0.79810466       0.90955979        1 
H       3.40036412      -1.18059210      -0.75780077        1 
H       3.72617559       1.50691977       0.44030770        1 
H       3.19298962       1.19523675      -1.21448164        1 
H       1.37359990       2.23698641       0.63457414        1 
H      -3.18134641       1.38369299       0.54534848        1 
H      -2.51328640       2.45801418       1.81369631        1 
H      -3.17879229      -1.86112242      -0.06605206        1 
H      -2.99900792      -1.42463147       1.66392718        1 
