29
Lattice="0.0 0.0 0.0 0.0 0.0 0.0 0.0 0.0 0.0" Properties=species:S:1:pos:R:3:Z:I:1 pbc="F F F"
C      -0.43275962       0.87211012       0.53046334        6 
C       0.85620297      -0.00329866       0.65779390        6 
C      -1.60357053       0.18774772      -0.14896310        6 
C       0.62388477      -1.49605231       0.51045750        6 
O      -2.75943745       0.50369208       0.47715843        8 
O      -1.54614668      -0.49797277      -1.13713552        8 
O       1.61739782      -2.10586937      -0.15919592        8 
O      -0.31946059      -2.07737969       0.98805005        8 
C       1.47291205      -3.52828786      -0.34293572        6 
C      -3.95147752      -0.08138046      -0.08019454        6 
C       0.11074578       1.99795780      -0.40753416        6 
C       1.11604167       2.88289164       0.36573628        6 
C       2.38122800       1.97012650       0.36744241        6 
C       1.82694555       0.70598276      -0.32410081        6 
O       0.94483259       1.26557404      -1.30940810        8 
H      -0.76485890       1.26403616       1.48962007        1 
H       1.23468105       0.09325777       1.68149431        1 
H       1.45319205      -4.03783971       0.62165956        1 
H      -3.87739769      -1.16955662      -0.06437217        1 
H      -0.65635601       2.53197283      -0.96468874        1 
H       1.29472335       3.81348877      -0.17472038        1 
H       0.76344393       3.13562896       1.36774291        1 
H       3.18236954       2.40389239      -0.23249064        1 
H       2.77189303       1.77327465       1.36777827        1 
H       2.55197499       0.05590837      -0.80229288        1 
H       0.55171707      -3.74296000      -0.88556959        1 
H       2.34153549      -3.83368812      -0.92182550        1 
H      -4.09928602       0.25477124      -1.10777633        1 
H      -4.76583709       0.25826727       0.55605290        1 
