29
Lattice="0.0 0.0 0.0 0.0 0.0 0.0 0.0 0.0 0.0" Properties=species:S:1:pos:R:3:Z:I:1 pbc="F F F"
C       0.59577543      -0.76241678      -0.66232061        6 
C       0.51265460       0.79670803      -0.41491387        6 
C      -0.48967729      -1.61291231      -0.01026576        6 
C      -0.79196769       1.31516391       0.15341094        6 
O      -1.71677696      -1.24523784      -0.43404577        8 
O      -0.29807161      -2.52233846       0.75507982        8 
O      -1.64708266       1.63051086      -0.84153034        8 
O      -1.02737738       1.50040964       1.32173914        8 
C      -2.95243247       2.07285882      -0.43462580        6 
C      -2.82739712      -1.96193665       0.13900621        6 
C       1.96482346      -1.06230145      -0.01102999        6 
C       3.10784948      -0.41537793      -0.82780476        6 
C       3.00625971       1.07363248      -0.37383342        6 
C       1.74388172       1.01316104       0.50856517        6 
O       1.89872801      -0.24872313       1.17014740        8 
H       0.56847128      -0.97500684      -1.73378411        1 
H       0.64676100       1.30201472      -1.37247997        1 
H      -3.44523473       1.29969193       0.15733848        1 
H      -2.86633600      -1.79500699       1.21640995        1 
H       2.10048881      -2.10232013       0.26923871        1 
H       4.06805754      -0.85339775      -0.55385937        1 
H       2.97373230      -0.54465824      -1.90430248        1 
H       3.86776344       1.36287483       0.22978401        1 
H       2.91974879       1.77717708      -1.20444428        1 
H       1.61893600       1.80109636       1.24606049        1 
H      -2.88281364       2.98698679       0.15709678        1 
H      -3.49918729       2.25442862      -1.35739567        1 
H      -2.73630482      -3.03056242      -0.05909072        1 
H      -3.71300819      -1.55634780      -0.34551874        1 
