29
Lattice="0.0 0.0 0.0 0.0 0.0 0.0 0.0 0.0 0.0" Properties=species:S:1:pos:R:3:Z:I:1 pbc="F F F"
C       0.84264869       0.13124678      -0.44570387        6 
C      -0.66957591       0.53223440      -0.54658780        6 
C       1.24356265      -1.24378988       0.05318383        6 
C      -1.73650735      -0.32852219       0.10984927        6 
O       2.28294514      -1.69446872      -0.70562756        8 
O       0.79809886      -1.86449732       0.97884466        8 
O      -2.74654370      -0.53665171      -0.78293101        8 
O      -1.75727203      -0.74852244       1.23236765        8 
C      -3.86772078      -1.28913836      -0.28657175        6 
C       2.82854874      -2.96833325      -0.31769339        6 
C       1.40262084       1.27834769       0.46818152        6 
C       1.60595700       2.53593515      -0.40243635        6 
C       0.12319169       2.95443695      -0.64896069        6 
C      -0.62862735       1.90599666       0.20498516        6 
O       0.28112567       1.63890359       1.27418574        8 
H       1.28174780       0.22168961      -1.43822248        1 
H      -0.95148145       0.66204358      -1.58982535        1 
H      -3.54632428      -2.27673891       0.04760408        1 
H       2.07177194      -3.74973608      -0.40597227        1 
H       2.23848781       0.99323193       1.10289315        1 
H       2.14347586       3.29755048       0.16439831        1 
H       2.16090321       2.33444036      -1.32053370        1 
H      -0.07460610       3.96035142      -0.27689469        1 
H      -0.16579730       2.91835090      -1.70100094        1 
H      -1.58606764       2.22672853       0.60962163        1 
H      -4.34068288      -0.76767352       0.54767159        1 
H      -4.55652625      -1.37196215      -1.12482447        1 
H       3.18650985      -2.93496337       0.71256731        1 
H       3.65135239      -3.15355348      -1.00491057        1 
