29
Lattice="0.0 0.0 0.0 0.0 0.0 0.0 0.0 0.0 0.0" Properties=species:S:1:pos:R:3:Z:I:1 pbc="F F F"
C      -0.91183932      -0.10243908      -0.87170332        6 
C       0.48547010      -0.60055527      -0.41604700        6 
C      -1.45026799       1.26784261      -0.47495390        6 
C       1.68228794       0.32778256      -0.34368297        6 
O      -0.80462003       1.84321929       0.53719447        8 
O      -2.47819182       1.69810764      -0.95168422        8 
O       2.79537159      -0.44432655      -0.20570746        8 
O       1.72472671       1.52833574      -0.37298448        8 
C       4.04142273       0.26375822      -0.07776580        6 
C      -1.35356844       3.07757157       1.02750679        6 
C      -1.78041828      -1.11290278      -0.04078834        6 
C      -1.49928114      -2.58280641      -0.44383394        6 
C      -0.18589307      -2.88145544       0.34707172        6 
C       0.14179114      -1.46498095       0.85308015        6 
O      -1.15364356      -0.99765978       1.24579315        8 
H      -1.06314632      -0.21047198      -1.94523566        1 
H       0.80507233      -1.31167893      -1.18454598        1 
H       4.22498950       0.87721665      -0.96125214        1 
H      -2.35250411       2.91321960       1.43524648        1 
H      -2.82956959      -0.83735387       0.02575312        1 
H      -2.31776121      -3.22771918      -0.12270716        1 
H      -1.38590907      -2.69891826      -1.52383865        1 
H      -0.37431541      -3.54782196       1.19042256        1 
H       0.60689563      -3.31228888      -0.26670334        1 
H       0.83937176      -1.38367119       1.68194166        1 
H       4.02931275       0.90414997       0.80577075        1 
H       4.80396266      -0.50615240       0.01864438        1 
H      -1.40682894       3.81510718       0.22574069        1 
H      -0.66877448       3.40615345       1.80568154        1 
