29
Lattice="0.0 0.0 0.0 0.0 0.0 0.0 0.0 0.0 0.0" Properties=species:S:1:pos:R:3:Z:I:1 pbc="F F F"
C       0.17849036       1.07169053       0.44590903        6 
C       0.57619646      -0.43204623       0.64969293        6 
C      -1.20787816       1.34122734      -0.11492103        6 
C      -0.38266468      -1.47290165       0.09343761        6 
O      -2.12937530       1.25265252       0.86698209        8 
O      -1.45705869       1.65287946      -1.25070603        8 
O       0.18076599      -2.69922408       0.17144059        8 
O      -1.49506029      -1.28676165      -0.32907064        8 
C      -0.61844394      -3.79611749      -0.31228669        6 
C      -3.50212712       1.31845743       0.44037572        6 
C       1.31491069       1.55439783      -0.49643452        6 
C       2.58594789       1.80548024       0.33793817        6 
C       3.00024352       0.34247505       0.68462178        6 
C       1.93994126      -0.46310454      -0.10175679        6 
O       1.66215680       0.36829459      -1.23222527        8 
H       0.22387436       1.58026802       1.41086038        1 
H       0.70261018      -0.66946329       1.70845270        1 
H      -1.53450188      -3.88741959       0.27343002        1 
H      -3.71327308       0.48968049      -0.23685002        1 
H       1.01891382       2.33783834      -1.18784999        1 
H       3.34406251       2.29623855      -0.27393737        1 
H       2.40196538       2.42576619       1.21752729        1 
H       4.00055899       0.11186487       0.31624656        1 
H       2.97662678       0.12813905       1.75516400        1 
H       2.24567463      -1.45267917      -0.42793444        1 
H      -0.87482524      -3.64509410      -1.36160424        1 
H       0.00303409      -4.68070703      -0.19198641        1 
H      -3.70506030       2.26491012      -0.06281069        1 
H      -4.09395141       1.23279743       1.34938223        1 
