29
Lattice="0.0 0.0 0.0 0.0 0.0 0.0 0.0 0.0 0.0" Properties=species:S:1:pos:R:3:Z:I:1 pbc="F F F"
C      -0.28188942       0.82035707       0.39733198        6 
C       0.85983600      -0.15318674       0.84885535        6 
C      -1.66221005       0.29539818       0.04837863        6 
C       0.78895882      -1.65644372       0.62461273        6 
O      -2.58822728       1.16186054       0.54417799        8 
O      -1.96482560      -0.67426399      -0.59485725        8 
O       0.42720123      -2.00178901      -0.60904107        8 
O       1.18051193      -2.44384805       1.45973350        8 
C       0.39791083      -3.40726914      -0.90547073        6 
C      -3.96089565       0.85567841       0.23688716        6 
C       0.40658645       1.58740184      -0.78878542        6 
C       1.29190549       2.69445181      -0.18374388        6 
C       2.42327960       1.83002502       0.45619061        6 
C       2.02986431       0.41216588      -0.02624003        6 
O       1.37560208       0.65808142      -1.27467889        8 
H      -0.44965236       1.52513383       1.21065599        1 
H       1.06182574      -0.03398552       1.91209432        1 
H       1.39468795      -3.84094698      -0.80734071        1 
H      -4.23552845      -0.11800771       0.64561913        1 
H      -0.25867651       1.88541045      -1.59595476        1 
H       1.68427395       3.33169099      -0.97766459        1 
H       0.76406399       3.32426670       0.53422080        1 
H       3.40485214       2.10519429       0.06878362        1 
H       2.45813634       1.90139361       1.54501960        1 
H       2.85614626      -0.28039077      -0.17011798        1 
H      -0.28823519      -3.92256971      -0.23187212        1 
H       0.04649800      -3.47383293      -1.93235868        1 
H      -4.11950603       0.84664425      -0.84276762        1 
H      -4.54544948       1.64552234       0.70362410        1 
