29
Lattice="0.0 0.0 0.0 0.0 0.0 0.0 0.0 0.0 0.0" Properties=species:S:1:pos:R:3:Z:I:1 pbc="F F F"
C      -0.49377476       0.76025977      -0.73935545        6 
C      -0.76995065      -0.78605121      -0.67812957        6 
C       0.97776736       1.13502202      -0.67983388        6 
C       0.38060960      -1.71990722      -0.36039699        6 
O       1.28153804       1.92201920       0.36469934        8 
O       1.77669153       0.79503621      -1.51949536        8 
O       1.20759678      -1.23017522       0.57864381        8 
O       0.48713090      -2.82494249      -0.83667068        8 
C       2.30725245      -2.07513478       0.96123414        6 
C       2.66644536       2.29349004       0.48835970        6 
C      -1.41380820       1.27917770       0.39499040        6 
C      -2.88155158       1.24093288      -0.08821523        6 
C      -3.17281584      -0.29031916      -0.04257123        6 
C      -1.82296253      -0.82859774       0.47942283        6 
O      -1.37523876       0.21002200       1.35392270        8 
H      -0.82459058       1.13313357      -1.71237477        1 
H      -1.19607678      -1.15300020      -1.60975022        1 
H       1.93981251      -3.02742122       1.34596531        1 
H       2.99109812       2.85836279      -0.38664536        1 
H      -1.08690179       2.20239081       0.86195120        1 
H      -3.52057896       1.78676284       0.60714029        1 
H      -3.01275466       1.67447753      -1.08164205        1 
H      -3.97048902      -0.52386934       0.66382149        1 
H      -3.44329364      -0.71131122      -1.01240501        1 
H      -1.86503420      -1.77469588       1.01483641        1 
H       2.95818315      -2.25682527       0.10478155        1 
H       2.83554589      -1.52677463       1.73800674        1 
H       3.28629697       1.40159491       0.59024795        1 
H       2.72275886       2.90536015       1.38577221        1 
