29
Lattice="0.0 0.0 0.0 0.0 0.0 0.0 0.0 0.0 0.0" Properties=species:S:1:pos:R:3:Z:I:1 pbc="F F F"
C       0.72387969      -0.82057933      -0.60261808        6 
C       0.56420765       0.73572155      -0.79757628        6 
C      -0.50055256      -1.69312148      -0.41819525        6 
C      -0.83471672       1.31895646      -0.66058266        6 
O      -1.39135585      -1.18998852       0.45084604        8 
O      -0.63426246      -2.76175349      -0.96764675        8 
O      -1.17152639       1.60491053       0.60459036        8 
O      -1.52322103       1.60369096      -1.61429872        8 
C      -2.49003291       2.13797064       0.80144029        6 
C      -2.56520083      -1.98628724       0.69737571        6 
C       1.69390357      -0.86851816       0.62542254        6 
C       3.12251174      -0.55857494       0.12995749        6 
C       3.00393884       0.97176465      -0.14896900        6 
C       1.54845280       1.24599640       0.29556657        6 
O       1.35292375       0.30541761       1.36060288        8 
H       1.21592642      -1.24313078      -1.47737949        1 
H       0.88590144       1.00802949      -1.80210799        1 
H      -2.61352650       3.07827970       0.26154060        1 
H      -2.28746703      -2.95778484       1.10835284        1 
H       1.58827171      -1.74889456       1.25582620        1 
H       3.84471314      -0.76250035       0.92175369        1 
H       3.40368797      -1.14237478      -0.74789138        1 
H       3.70210978       1.54333904       0.46379862        1 
H       3.17667212       1.23537826      -1.19426515        1 
H       1.34419158       2.25087513       0.65428407        1 
H      -3.23960994       1.42479557       0.45316398        1 
H      -2.58069904       2.29473176       1.87406002        1 
H      -3.12639580      -2.13220672      -0.22672653        1 
H      -3.14987553      -1.41869626       1.41801246        1 
