29
Lattice="0.0 0.0 0.0 0.0 0.0 0.0 0.0 0.0 0.0" Properties=species:S:1:pos:R:3:Z:I:1 pbc="F F F"
C       0.54664975       0.89692721       0.40388979        6 
C       0.54889866      -0.60728829       0.81849867        6 
C      -0.74812757       1.62553750       0.10304646        6 
C      -0.64308651      -1.47771451       0.46245205        6 
O      -1.83448084       0.97790643       0.55803540        8 
O      -0.78030627       2.74884622      -0.34053711        8 
O      -1.05734372      -1.31008477      -0.80311317        8 
O      -1.09303405      -2.31647549       1.20839598        8 
C      -2.14875264      -2.14095191      -1.22943945        6 
C      -3.09552685       1.65926706       0.42164513        6 
C       1.63576883       0.94442001      -0.70919811        6 
C       3.01810297       0.97971241      -0.02736582        6 
C       3.08458426      -0.46556221       0.55870502        6 
C       1.78648358      -1.08499601      -0.01511722        6 
O       1.60858768      -0.38291083      -1.25070526        8 
H       0.91460224       1.47161283       1.26159720        1 
H       0.70337303      -0.73469137       1.88814906        1 
H      -1.88444520      -3.19623432      -1.14662947        1 
H      -3.30903782       1.85282153      -0.63044184        1 
H       1.45496998       1.67955677      -1.48807354        1 
H       3.79738666       1.13878724      -0.77380945        1 
H       3.10262860       1.76215761       0.72904468        1 
H       3.95711440      -1.00654036       0.19088814        1 
H       3.10872618      -0.48937292       1.65007603        1 
H       1.81989734      -2.15674847      -0.19919989        1 
H      -3.03542431      -1.94530862      -0.62327972        1 
H      -2.32756446      -1.87165284      -2.26811231        1 
H      -3.07921645       2.60412111       0.96641052        1 
H      -3.83427892       0.98302688       0.84600733        1 
