29
Lattice="0.0 0.0 0.0 0.0 0.0 0.0 0.0 0.0 0.0" Properties=species:S:1:pos:R:3:Z:I:1 pbc="F F F"
C      -0.79170333      -0.21217489      -0.79191170        6 
C       0.69580397      -0.56382082      -0.51377577        6 
C      -1.27258338       1.07109662      -0.10911675        6 
C       1.69407929       0.57684019      -0.53150586        6 
O      -2.62563055       1.08916586      -0.06849185        8 
O      -0.59450965       1.98574689       0.27710863        8 
O       2.63614534       0.43706387       0.42466118        8 
O       1.67732320       1.47657377      -1.33125945        8 
C       3.63287579       1.47616046       0.47422722        6 
C      -3.22259776       2.26184709       0.51472117        6 
C      -1.44503361      -1.40109316      -0.02482251        6 
C      -0.99957058      -2.77860108      -0.57730913        6 
C       0.39553328      -2.95689416       0.10261149        6 
C       0.58216604      -1.54750251       0.69142076        6 
O      -0.73191112      -1.29458262       1.22363814        8 
H      -1.03976365      -0.16457383      -1.85273049        1 
H       1.02956226      -1.14939735      -1.37979540        1 
H       4.18602048       1.52020500      -0.46510229        1 
H      -2.94978020       3.15174986      -0.05455854        1 
H      -2.51004099      -1.28785008       0.14688179        1 
H      -1.69935078      -3.55761888      -0.27320142        1 
H      -0.94625609      -2.78560730      -1.66869357        1 
H       0.35276193      -3.69622743       0.90395701        1 
H       1.18678115      -3.24302499      -0.59343072        1 
H       1.33025546      -1.42470793       1.46723286        1 
H       3.15845043       2.44046342       0.65960965        1 
H       4.29214443       1.20608172       1.29631280        1 
H      -2.89399888       2.38074414       1.54809069        1 
H      -4.29626771       2.09204346       0.47106131        1 
