29
Lattice="0.0 0.0 0.0 0.0 0.0 0.0 0.0 0.0 0.0" Properties=species:S:1:pos:R:3:Z:I:1 pbc="F F F"
C      -0.58961609      -0.94009817       0.57130114        6 
C      -0.61545779       0.62856935       0.74304698        6 
C       0.65465095      -1.59766345      -0.01878337        6 
C       0.70734251       1.36003597       0.62113730        6 
O       1.78812355      -1.06066130       0.45924508        8 
O       0.63013597      -2.54675222      -0.76305731        8 
O       1.02277333       1.62299471      -0.66190848        8 
O       1.40016772       1.66752294       1.55944214        8 
C       2.29814719       2.24775785      -0.88233239        6 
C       3.02087828      -1.63783225      -0.00892074        6 
C      -1.79564388      -1.13778235      -0.37715725        6 
C      -3.11912092      -0.80389780       0.34659880        6 
C      -3.09431899       0.75498367       0.32998122        6 
C      -1.71160949       1.00973431      -0.30102728        6 
O      -1.62543610      -0.03358687      -1.28114461        8 
H      -0.74164356      -1.42170583       1.54166844        1 
H      -0.95596472       0.85690567       1.75337105        1 
H       2.34414602       3.21662476      -0.38260380        1 
H       3.10798225      -1.51405303      -1.08954418        1 
H      -1.76911575      -2.07362854      -0.92641340        1 
H      -3.96790378      -1.19655670      -0.21426390        1 
H      -3.16032747      -1.22161712       1.35493343        1 
H      -3.87802491       1.15675371      -0.31415918        1 
H      -3.20292896       1.20307674       1.31967138        1 
H      -1.57068599       1.97525997      -0.77898205        1 
H       3.09936226       1.61149607      -0.50232703        1 
H       2.38038516       2.36721699      -1.96038933        1 
H       3.06240246      -2.69971246       0.23641218        1 
H       3.80677424      -1.09198828       0.50809118        1 
