29
Lattice="0.0 0.0 0.0 0.0 0.0 0.0 0.0 0.0 0.0" Properties=species:S:1:pos:R:3:Z:I:1 pbc="F F F"
C       0.77876152      -0.77484984      -0.69513637        6 
C       0.46819944       0.76372085      -0.70696246        6 
C      -0.34163296      -1.73722823      -0.35392058        6 
C      -1.01107643       1.10457655      -0.66412828        6 
O      -1.15720540      -1.27160440       0.60700587        8 
O      -0.43209136      -2.84277359      -0.83243187        8 
O      -1.32706971       1.96117841       0.32168300        8 
O      -1.80800210       0.68434990      -1.46818801        8 
C      -2.71760724       2.32218943       0.41915858        6 
C      -2.23480253      -2.13815437       1.00345512        6 
C       1.86275210      -0.81989805       0.43102540        6 
C       3.17792071      -0.20460740      -0.09699769        6 
C       2.83462550       1.31568764      -0.05081328        6 
C       1.37232366       1.27269462       0.44572892        6 
O       1.39138350       0.16264756       1.35761548        8 
H       1.18042012      -1.11498155      -1.64747912        1 
H       0.80172186       1.17457724      -1.66452997        1 
H      -3.04820861       2.82030281      -0.49332599        1 
H      -1.84522457      -3.08896683       1.36953165        1 
H       1.95614564      -1.78444191       0.92550364        1 
H       4.00439626      -0.44836004       0.57183437        1 
H       3.43395309      -0.56165902      -1.09619440        1 
H       3.46096745       1.84171748       0.67085349        1 
H       2.94076568       1.81169781      -1.01781351        1 
H       1.00989173       2.16028776       0.95352784        1 
H      -3.32689959       1.43242294       0.58364724        1 
H      -2.78237456       2.99503151       1.27124595        1 
H      -2.90111023      -2.32000824       0.15886512        1 
H      -2.75514528      -1.60659092       1.79719723        1 
