29
Lattice="0.0 0.0 0.0 0.0 0.0 0.0 0.0 0.0 0.0" Properties=species:S:1:pos:R:3:Z:I:1 pbc="F F F"
C      -0.79002832       0.42535467      -0.84990395        6 
C      -0.07965056      -0.91466416      -0.44066735        6 
C       0.01802046       1.70305868      -0.66718493        6 
C       1.36730748      -0.82715043      -0.00289320        6 
O      -0.02886605       2.18143105       0.57952787        8 
O       0.55586241       2.27124264      -1.59075882        8 
O       2.04074894      -1.91807067      -0.43969460        8 
O       1.87297750       0.02970623       0.67677003        8 
C       3.42208215      -2.00565701      -0.04049283        6 
C       0.78763739       3.33332404       0.84747119        6 
C      -2.04841525       0.35126874       0.06546756        6 
C      -3.00334898      -0.74779791      -0.45705892        6 
C      -2.28373012      -2.03827601       0.04312577        6 
C      -1.02683576      -1.42736852       0.69704465        6 
O      -1.52819762      -0.22358130       1.27317153        8 
H      -1.04878499       0.39690249      -1.90751741        1 
H      -0.10528177      -1.61115851      -1.27781632        1 
H       3.98456995      -1.15794240      -0.43421424        1 
H       0.52075127       4.15940371       0.18661178        1 
H      -2.50652961       1.31126190       0.28649518        1 
H      -3.98934432      -0.64044459      -0.00321199        1 
H      -3.12430637      -0.71525975      -1.54162830        1 
H      -2.87859520      -2.55733628       0.79628005        1 
H      -2.05008642      -2.74599322      -0.75406288        1 
H      -0.54140141      -2.03338869       1.45895909        1 
H       3.50431394      -2.01801939       1.04729189        1 
H       3.78703840      -2.93833671      -0.46471206        1 
H       1.83904494       3.07723063       0.70905690        1 
H       0.59211107       3.58894760       1.88630492        1 
