29
Lattice="0.0 0.0 0.0 0.0 0.0 0.0 0.0 0.0 0.0" Properties=species:S:1:pos:R:3:Z:I:1 pbc="F F F"
C      -0.85050546       0.56644915      -0.80224855        6 
C      -0.17740874      -0.81025421      -0.54016946        6 
C      -0.12723115       1.83610141      -0.38000132        6 
C       1.33656372      -0.84763614      -0.54635603        6 
O       0.74649707       1.65028638       0.61724593        8 
O      -0.42319538       2.92299345      -0.82078953        8 
O       1.79662819      -1.91304636       0.14406112        8 
O       2.05038853      -0.07659632      -1.13620011        8 
C       3.22543459      -2.09596331       0.14542533        6 
C       1.41090142       2.82671034       1.10813217        6 
C      -2.08346032       0.41562969       0.15213310        6 
C      -3.02157063      -0.71381089      -0.34117007        6 
C      -2.27196965      -1.98326651       0.17179811        6 
C      -0.96972341      -1.34411776       0.69247577        6 
O      -1.46828175      -0.15129470       1.31740320        8 
H      -1.14812601       0.70532046      -1.84000295        1 
H      -0.41875400      -1.45562555      -1.39440716        1 
H       3.59127238      -2.24508206      -0.87154886        1 
H       0.68570043       3.52897768       1.52224113        1 
H      -2.56913736       1.35554688       0.40331071        1 
H      -4.00709547      -0.61660716       0.11563421        1 
H      -3.15098409      -0.69829839      -1.42544096        1 
H      -2.81046016      -2.45358280       0.99603127        1 
H      -2.10503522      -2.73434037      -0.60251801        1 
H      -0.38789466      -1.92508678       1.40084470        1 
H       3.71852946      -1.22609582       0.58115176        1 
H       3.40299025      -2.98188502       0.75113187        1 
H       1.96601878       3.31045659       0.30333951        1 
H       2.08776371       2.47396136       1.88300938        1 
