29
Lattice="0.0 0.0 0.0 0.0 0.0 0.0 0.0 0.0 0.0" Properties=species:S:1:pos:R:3:Z:I:1 pbc="F F F"
C      -0.36676224      -0.79626986       0.50694019        6 
C      -0.70796467       0.73258498       0.53682419        6 
C       0.92030838      -1.20501998      -0.18934070        6 
C       0.34370633       1.77508625       0.20384509        6 
O       1.74166405      -1.83863776       0.68155831        8 
O       1.18021522      -1.05393648      -1.35475967        8 
O       1.59802532       1.30383568       0.27426746        8 
O       0.07665212       2.94084255       0.03372458        8 
C       2.65515079       2.24705545       0.01780950        6 
C       2.99370823      -2.29108427       0.13800999        6 
C      -1.58883263      -1.31166425      -0.32088755        6 
C      -2.87423839      -1.22622145       0.53572633        6 
C      -3.19097663       0.29904000       0.45272258        6 
C      -1.97871461       0.80017697      -0.35824265        6 
O      -1.76996758      -0.27016498      -1.28704920        8 
H      -0.35232616      -1.20963110       1.51384722        1 
H      -0.98257442       0.99662850       1.56341191        1 
H       2.56096095       2.65068077      -0.99074844        1 
H       3.56071073      -1.44807744      -0.26011393        1 
H      -1.42205842      -2.25747330      -0.83115976        1 
H      -3.66895341      -1.82594004       0.09040796        1 
H      -2.71702267      -1.57905876       1.55728518        1 
H      -4.11108971       0.48243414      -0.10395369        1 
H      -3.28204164       0.77987566       1.42872590        1 
H      -2.10344133       1.74205915      -0.88479031        1 
H       2.62203172       3.06257951       0.74154641        1 
H       3.57731694       1.67926999       0.11787658        1 
H       2.82602536      -3.01602089      -0.66020874        1 
H       3.52285789      -2.75188983       0.96938373        1 
