29
Lattice="0.0 0.0 0.0 0.0 0.0 0.0 0.0 0.0 0.0" Properties=species:S:1:pos:R:3:Z:I:1 pbc="F F F"
C       0.72084155      -0.87159036      -0.59899709        6 
C       0.56679252       0.68753923      -0.81938554        6 
C      -0.57923155      -1.62979915      -0.43748634        6 
C      -0.86055979       1.18294675      -0.63408417        6 
O      -1.17129184      -1.37196367       0.74579343        8 
O      -1.04780236      -2.35718394      -1.27726839        8 
O      -1.02282144       1.94761810       0.45629450        8 
O      -1.74874063       0.93479894      -1.41500025        8 
C      -2.35919974       2.42007161       0.70382731        6 
C      -2.46697087      -1.96750619       0.94417607        6 
C       1.68597227      -0.89608264       0.62459191        6 
C       3.11864665      -0.64118142       0.11285093        6 
C       3.02714243       0.87306767      -0.25121192        6 
C       1.59049612       1.21142563       0.21590622        6 
O       1.38765282       0.31818154       1.32067181        8 
H       1.19281373      -1.31435607      -1.47505006        1 
H       0.83421625       0.93943129      -1.84678014        1 
H      -2.71208260       3.02881759      -0.12987382        1 
H      -2.40347267      -3.05471186       0.88225060        1 
H       1.55714967      -1.74503683       1.29146399        1 
H       3.83779679      -0.81244746       0.91513058        1 
H       3.39060285      -1.27648504      -0.73206306        1 
H       3.75757514       1.46228829       0.30434752        1 
H       3.17563820       1.06843709      -1.31546817        1 
H       1.42585388       2.23506849       0.53772794        1 
H      -3.03689300       1.57682461       0.84526092        1 
H      -2.29136079       3.01224549       1.61349025        1 
H      -3.16468014      -1.60311032       0.18845265        1 
H      -2.77706874      -1.65773355       1.93990908        1 
