29
Lattice="0.0 0.0 0.0 0.0 0.0 0.0 0.0 0.0 0.0" Properties=species:S:1:pos:R:3:Z:I:1 pbc="F F F"
C      -0.28819743      -0.80833011       0.53552378        6 
C      -0.74105937       0.69154500       0.54298894        6 
C       1.02596698      -1.19983224      -0.12563413        6 
C       0.21659809       1.85414041       0.35731527        6 
O       1.80176703      -1.86255674       0.77275577        8 
O       1.35422426      -1.01594495      -1.26638346        8 
O       1.40480569       1.53198794      -0.16108841        8 
O      -0.08142409       2.97510782       0.70390323        8 
C       2.34042795       2.60943996      -0.35017914        6 
C       3.06311001      -2.33970662       0.27204968        6 
C      -1.44988002      -1.40997815      -0.32389860        6 
C      -2.78705237      -1.34663442       0.45473007        6 
C      -3.18377708       0.14964829       0.25803896        6 
C      -1.93398559       0.67387343      -0.47604880        6 
O      -1.61237508      -0.41593239      -1.34139525        8 
H      -0.28147410      -1.20742277       1.54833690        1 
H      -1.15377041       0.89899107       1.53246083        1 
H       1.91626169       3.36787454      -1.00901560        1 
H       3.66535576      -1.50801081      -0.09678354        1 
H      -1.21965181      -2.36813908      -0.78408561        1 
H      -3.52083193      -2.01731130       0.00612655        1 
H      -2.67050571      -1.62871634       1.50308909        1 
H      -4.05873450       0.24359818      -0.38682757        1 
H      -3.38555556       0.67648034       1.19199642        1 
H      -2.05895388       1.58885432      -1.04954287        1 
H       2.59504940       3.06521850       0.60796383        1 
H       3.21434008       2.15056719      -0.80656822        1 
H       2.90772657      -3.05359268      -0.53868646        1 
H       3.54915418      -2.82095636       1.11805703        1 
