29
Lattice="0.0 0.0 0.0 0.0 0.0 0.0 0.0 0.0 0.0" Properties=species:S:1:pos:R:3:Z:I:1 pbc="F F F"
C      -0.73281868       0.26783040      -0.55292036        6 
C       0.16983033      -1.01070999      -0.51561160        6 
C      -0.08880922       1.59170683      -0.18976184        6 
C       1.52579868      -0.86642900       0.16415949        6 
O      -1.01847970       2.57320632      -0.24246617        8 
O       1.06416280       1.78847521       0.09563420        8 
O       2.51033316      -0.85657262      -0.76318197        8 
O       1.71963320      -0.79474395       1.34855215        8 
C       3.83532272      -0.61787426      -0.25487054        6 
C      -0.55775894       3.89804519       0.08653609        6 
C      -1.93026583      -0.16014285       0.35254907        6 
C      -2.85029225      -1.10044245      -0.45403299        6 
C      -1.96867417      -2.38581596      -0.51494857        6 
C      -0.74542089      -1.95057599       0.32565488        6 
O      -1.31834301      -1.05067973       1.28600046        8 
H      -1.09794707       0.41730021      -1.57309468        1 
H       0.33643142      -1.38967428      -1.52297359        1 
H       3.87038392       0.35057398       0.24590407        1 
H       0.23121485       4.20815285      -0.60019001        1 
H      -2.41836613       0.65819626       0.87426618        1 
H      -3.77382250      -1.27993123       0.09861538        1 
H      -3.11272465      -0.70293125      -1.43629892        1 
H      -2.46899468      -3.23503377      -0.04787906        1 
H      -1.69452263      -2.67195826      -1.53252333        1 
H      -0.21711995      -2.74557375       0.84543592        1 
H       4.12379464      -1.40073949       0.44848933        1 
H       4.48684999      -0.62637969      -1.12618494        1 
H      -0.17639052       3.92389771       1.10830585        1 
H      -1.42960876       4.54046082      -0.01446801        1 
