29
Lattice="0.0 0.0 0.0 0.0 0.0 0.0 0.0 0.0 0.0" Properties=species:S:1:pos:R:3:Z:I:1 pbc="F F F"
C       0.71732189      -0.74352728      -0.47818334        6 
C       0.31697149       0.76365054      -0.54021434        6 
C      -0.30963940      -1.81953902      -0.18470645        6 
C      -0.95111630       1.16991234       0.18935462        6 
O      -1.57550465      -1.39791164      -0.33349564        8 
O      -0.00814850      -2.97599945      -0.00633127        8 
O      -1.70481846       1.96964594      -0.60569815        8 
O      -1.24834614       0.89581004       1.32237802        8 
C      -2.92254458       2.46155938      -0.01897881        6 
C      -2.60744946      -2.38479179      -0.14920080        6 
C       1.95904694      -0.72128059       0.46257124        6 
C       3.18419734      -0.27520274      -0.35974504        6 
C       2.82562339       1.22217196      -0.61629753        6 
C       1.53687002       1.37218634       0.22895561        6 
O       1.72322723       0.42690670       1.28677601        8 
H       1.05316413      -1.03314415      -1.47988939        1 
H       0.25558697       1.12384495      -1.56530887        1 
H      -3.58277455       1.63056598       0.23529275        1 
H      -2.56733921      -2.78485628       0.86447375        1 
H       2.07866465      -1.61145648       1.07359674        1 
H       4.08830467      -0.36554431       0.24388631        1 
H       3.32270683      -0.85312948      -1.27544026        1 
H       3.60457591       1.89078847      -0.24791396        1 
H       2.65759943       1.44986449      -1.67114938        1 
H       1.36043059       2.36106629       0.64670052        1 
H      -2.70978237       3.03705123       0.88329542        1 
H      -3.37777744       3.09310271      -0.77896218        1 
H      -2.49039359      -3.19857845      -0.86633368        1 
H      -3.54360499      -1.85635337      -0.31429892        1 
