29
Lattice="0.0 0.0 0.0 0.0 0.0 0.0 0.0 0.0 0.0" Properties=species:S:1:pos:R:3:Z:I:1 pbc="F F F"
C       0.61562499       0.87428110       0.40969364        6 
C       0.32669244      -0.63341261       0.65541466        6 
C      -0.53625283       1.78339073       0.03217746        6 
C      -0.87290739      -1.18335271      -0.09348380        6 
O      -1.63120314       1.49895919       0.76595450        8 
O      -0.44186445       2.74716282      -0.68632577        8 
O      -1.18970793      -2.40897692       0.38584021        8 
O      -1.45256825      -0.66034549      -1.00994516        8 
C      -2.26616272      -3.08869120      -0.28733435        6 
C      -2.79949740       2.29408959       0.49671812        6 
C       1.81299823       0.82528253      -0.58018361        6 
C       3.09942607       0.62511008       0.24302295        6 
C       2.87665826      -0.82961685       0.76318989        6 
C       1.60244065      -1.23978775      -0.01637722        6 
O       1.67598000      -0.45943395      -1.21431940        8 
H       0.95560754       1.30516618       1.35836967        1 
H       0.24416082      -0.89692586       1.70889171        1 
H      -3.18988413      -2.51405788      -0.20394503        1 
H      -3.12773069       2.13414225      -0.53135114        1 
H       1.81610934       1.61458563      -1.32601002        1 
H       3.97217163       0.68099308      -0.40893474        1 
H       3.21608860       1.36118054       1.04070729        1 
H       3.71058093      -1.48267623       0.50336136        1 
H       2.73280816      -0.88338779       1.84472917        1 
H       1.52103660      -2.29623745      -0.26190376        1 
H      -2.02675466      -3.23172666      -1.34213793        1 
H      -2.36490315      -4.04728032       0.21738922        1 
H      -2.58945229       3.35308366       0.65243131        1 
H      -3.55586301       1.94476336       1.19641506        1 
