29
Lattice="0.0 0.0 0.0 0.0 0.0 0.0 0.0 0.0 0.0" Properties=species:S:1:pos:R:3:Z:I:1 pbc="F F F"
C       0.68262524      -0.81454668      -0.64242762        6 
C       0.59767599       0.75841919      -0.76265367        6 
C      -0.59697500      -1.62123727      -0.54341868        6 
C      -0.75746349       1.42967522      -0.59999133        6 
O      -1.34241786      -1.31168652       0.52810781        8 
O      -0.88818985      -2.49381504      -1.32886228        8 
O      -1.17610975       1.48264713       0.67109456        8 
O      -1.34248459       1.96017774      -1.51742886        8 
C      -2.44121505       2.12458336       0.89848720        6 
C      -2.56363638      -2.05595993       0.69120929        6 
C       1.63484095      -0.96497239       0.58974910        6 
C       3.08216871      -0.70618808       0.11825380        6 
C       3.04137405       0.83765575      -0.09998273        6 
C       1.60101452       1.16637384       0.35729235        6 
O       1.35243432       0.19222610       1.37675879        8 
H       1.16373402      -1.20517609      -1.53781215        1 
H       0.94270776       1.06410478      -1.74926498        1 
H      -2.40876802       3.16734802       0.57826886        1 
H      -2.35077836      -3.11857531       0.81761699        1 
H       1.47939939      -1.86357281       1.18283957        1 
H       3.78481364      -0.97619156       0.90799389        1 
H       3.34582442      -1.26640451      -0.78015928        1 
H       3.76728722       1.34938645       0.53292159        1 
H       3.22581763       1.13273807      -1.13456982        1 
H       1.44850128       2.16472275       0.75953965        1 
H      -3.23382366       1.60906048       0.35308200        1 
H      -2.60854395       2.05655052       1.97112558        1 
H      -3.20983025      -1.92089979      -0.17743158        1 
H      -3.02945087      -1.64896518       1.58587578        1 
