29
Lattice="0.0 0.0 0.0 0.0 0.0 0.0 0.0 0.0 0.0" Properties=species:S:1:pos:R:3:Z:I:1 pbc="F F F"
C      -0.55049869       0.71164451      -0.79271896        6 
C      -0.75061230      -0.84345843      -0.62368517        6 
C       0.89845026       1.16074318      -0.68464699        6 
C       0.48592619      -1.68198517      -0.37287215        6 
O       1.15315655       1.87135665       0.42386064        8 
O       1.71819483       0.94187574      -1.54551285        8 
O       1.22892823      -1.20882439       0.64439923        8 
O       0.75402719      -2.68504088      -0.98873889        8 
C       2.44488377      -1.92331887       0.93005474        6 
C       2.51665866       2.29342144       0.60105705        6 
C      -1.51363352       1.24639289       0.29749533        6 
C      -2.97592833       1.04647028      -0.16405231        6 
C      -3.15486596      -0.48796204       0.05307835        6 
C      -1.75310294      -0.86973063       0.57514739        6 
O      -1.37572805       0.27396529       1.34456774        8 
H      -0.86367673       1.00485946      -1.79652421        1 
H      -1.20425413      -1.26922165      -1.51681916        1 
H       2.23088335      -2.96833008       1.15742513        1 
H       2.83389003       2.92723192      -0.22827517        1 
H      -1.26603703       2.23211017       0.67851099        1 
H      -3.65336478       1.61865708       0.47105488        1 
H      -3.13603510       1.35884725      -1.19804284        1 
H      -3.90894902      -0.69626270       0.81323644        1 
H      -3.42736605      -1.02843623      -0.85490563        1 
H      -1.70186187      -1.76514673       1.19080706        1 
H       3.11966831      -1.86868744       0.07440180        1 
H       2.87641228      -1.42321919       1.79444860        1 
H       3.17288039       1.42374138       0.66027807        1 
H       2.52831891       2.84687920       1.53719445        1 
