29
Lattice="0.0 0.0 0.0 0.0 0.0 0.0 0.0 0.0 0.0" Properties=species:S:1:pos:R:3:Z:I:1 pbc="F F F"
C      -0.53541561       0.57174458      -0.86595389        6 
C      -0.40080487      -0.85041944      -0.25319589        6 
C       0.35718377       1.68761039      -0.30973696        6 
C       0.94572011      -1.47418136       0.03440973        6 
O       1.39482083       1.25059557       0.41779674        8 
O       0.07646396       2.85762937      -0.42099119        8 
O       1.86854061      -1.09020550      -0.86828454        8 
O       1.11513170      -2.38314124       0.81197507        8 
C       3.14504252      -1.74735280      -0.79044529        6 
C       2.16738002       2.26306209       1.08973275        6 
C      -1.94887666       0.90934673      -0.29575811        6 
C      -3.03100217      -0.09530320      -0.76396691        6 
C      -2.80473883      -1.28943990       0.21629471        6 
C      -1.48433106      -0.84412545       0.86798217        6 
O      -1.73782598       0.55475299       1.08631907        8 
H      -0.48153344       0.58171026      -1.95502212        1 
H      -0.75362914      -1.53664046      -1.03522731        1 
H       3.60924583      -1.56401777       0.17983232        1 
H       1.53698948       2.81465794       1.78842861        1 
H      -2.21140082       1.95938808      -0.37359731        1 
H      -4.02606700       0.33637347      -0.65345314        1 
H      -2.90490202      -0.37409229      -1.81274614        1 
H      -3.59483738      -1.34237891       0.96685774        1 
H      -2.73215232      -2.25783700      -0.28270432        1 
H      -1.19371475      -1.33097862       1.79418022        1 
H       3.03314299      -2.82310218      -0.93620564        1 
H       3.74317153      -1.31183297      -1.58787456        1 
H       2.59858740       2.95685118       0.36693217        1 
H       2.94902378       1.72364842       1.61998009        1 
