29
Lattice="0.0 0.0 0.0 0.0 0.0 0.0 0.0 0.0 0.0" Properties=species:S:1:pos:R:3:Z:I:1 pbc="F F F"
C       0.48418836      -0.58141873      -0.54868694        6 
C       0.42509380       0.98552170      -0.54279817        6 
C      -0.71971433      -1.33668967      -0.02769871        6 
C      -0.82096681       1.60625343       0.07331850        6 
O      -0.63399101      -2.63005974      -0.42345995        8 
O      -1.61184700      -0.91713824       0.66291071        8 
O      -1.80212728       1.67803490      -0.85485786        8 
O      -0.94132571       1.97596556       1.21048513        8 
C      -3.09302345       2.08580464      -0.36434982        6 
C      -1.67001845      -3.50844104       0.05508984        6 
C       1.75102222      -0.83609975       0.33218735        6 
C       3.01206591      -0.51765819      -0.49989157        6 
C       2.95815392       1.04119020      -0.52648447        6 
C       1.68506086       1.31001012       0.30595822        6 
O       1.70212519       0.23994117       1.26534727        8 
H       0.65922587      -0.95063127      -1.56013181        1 
H       0.50685364       1.35741795      -1.56471222        1 
H      -3.43394035       1.38558891       0.39953547        1 
H      -2.64395003      -3.18632613      -0.31664672        1 
H       1.75396627      -1.79016674       0.85406245        1 
H       3.90182385      -0.87483322       0.02056353        1 
H       2.99192419      -0.97255401      -1.49168775        1 
H       3.83010391       1.47706549      -0.03719635        1 
H       2.89369773       1.45208606      -1.53588265        1 
H       1.63905345       2.26146851       0.82762223        1 
H      -3.04389271       3.09061332       0.05786118        1 
H      -3.75265564       2.06579194      -1.22942202        1 
H      -1.68751958      -3.51996055       1.14583725        1 
H      -1.41816196      -4.49201964      -0.33539493        1 
