29
Lattice="0.0 0.0 0.0 0.0 0.0 0.0 0.0 0.0 0.0" Properties=species:S:1:pos:R:3:Z:I:1 pbc="F F F"
C      -0.45841303      -0.76176188       0.44313610        6 
C      -0.65155954       0.79053714       0.65008383        6 
C       0.86457710      -1.16329901      -0.17382552        6 
C       0.44620876       1.65043688       0.04219305        6 
O       1.60769357      -1.86881484       0.70715165        8 
O       1.21541975      -0.93102624      -1.30398044        8 
O       1.61791579       1.42391443       0.67865340        8 
O       0.31799538       2.42542531      -0.86781991        8 
C       2.77568924       2.06350302       0.10777920        6 
C       2.89552294      -2.30320257       0.23444512        6 
C      -1.68176576      -1.07973712      -0.47226684        6 
C      -2.94523782      -1.15309909       0.41055644        6 
C      -3.14177710       0.35490028       0.75791039        6 
C      -2.00512254       1.00534234      -0.06515525        6 
O      -1.88330551       0.13406479      -1.19828194        8 
H      -0.54272035      -1.27459734       1.40022679        1 
H      -0.69235600       1.01847629       1.71735638        1 
H       2.93509968       1.69734506      -0.90762510        1 
H       3.50970213      -1.44298411      -0.03646612        1 
H      -1.52839208      -1.90228647      -1.16669256        1 
H      -3.78286521      -1.53557036      -0.17442985        1 
H      -2.82214639      -1.79030228       1.28852466        1 
H      -4.11335334       0.71956885       0.42238168        1 
H      -3.05458528       0.56423471       1.82651398        1 
H      -2.17289608       2.02324962      -0.40440039        1 
H       2.64633493       3.14615100       0.08871162        1 
H       3.60702233       1.78791459       0.75314321        1 
H       2.78518011      -2.95247983      -0.63541480        1 
H       3.34172528      -2.84588778       1.06483187        1 
