29
Lattice="0.0 0.0 0.0 0.0 0.0 0.0 0.0 0.0 0.0" Properties=species:S:1:pos:R:3:Z:I:1 pbc="F F F"
C       0.66149641      -0.71244449      -0.64387722        6 
C       0.44047093       0.83447728      -0.44743145        6 
C      -0.39430779      -1.70725768      -0.18212190        6 
C      -0.87723183       1.28506002       0.15513779        6 
O      -1.63654405      -1.19997597      -0.17394471        8 
O      -0.14725912      -2.86460646       0.05688263        8 
O      -1.72798283       1.68767598      -0.81534067        8 
O      -1.13089804       1.34530133       1.33140764        8 
C      -3.03333574       2.09465348      -0.37318564        6 
C      -2.69105018      -2.09393977       0.23250586        6 
C       1.99137385      -0.91941956       0.12622365        6 
C       3.16157270      -0.27573557      -0.65004389        6 
C       2.93178150       1.23587532      -0.34512901        6 
C       1.63874411       1.16896208       0.49184151        6 
O       1.81666009      -0.03962601       1.24360325        8 
H       0.78593147      -0.93073756      -1.70898743        1 
H       0.53786244       1.33461837      -1.41104841        1 
H      -3.53147238       1.27092727       0.14106517        1 
H      -2.51462014      -2.44507904       1.24955925        1 
H       2.14245639      -1.93902443       0.46772621        1 
H       4.11528556      -0.62314738      -0.25092016        1 
H       3.13686482      -0.51207270      -1.71597032        1 
H       3.74470736       1.64562643       0.25599876        1 
H       2.82883835       1.84986775      -1.24205223        1 
H       1.45709765       1.99587176       1.17276414        1 
H      -2.96294663       2.94740853       0.30397329        1 
H      -3.57601731       2.36644125      -1.27610081        1 
H      -2.74643618      -2.94755230      -0.44406420        1 
H      -3.60341299      -1.50404895       0.18417155        1 
