29
Lattice="0.0 0.0 0.0 0.0 0.0 0.0 0.0 0.0 0.0" Properties=species:S:1:pos:R:3:Z:I:1 pbc="F F F"
C      -0.54341079       0.73386459      -0.78444325        6 
C      -0.75398667      -0.82064368      -0.63489985        6 
C       0.90538809       1.18724366      -0.69453175        6 
C       0.45163066      -1.69737126      -0.36404938        6 
O       1.19751613       1.80604663       0.45908167        8 
O       1.68830411       1.06101499      -1.60679163        8 
O       1.28866486      -1.16860960       0.54477943        8 
O       0.60910544      -2.78435866      -0.86682629        8 
C       2.45379426      -1.94809995       0.86986563        6 
C       2.56457199       2.21960550       0.62167272        6 
C      -1.49009916       1.26143379       0.32584491        6 
C      -2.95776961       1.09851178      -0.13115706        6 
C      -3.15886027      -0.43866227       0.04045026        6 
C      -1.76539369      -0.85545654       0.55820738        6 
O      -1.36679399       0.26359758       1.35143194        8 
H      -0.87166905       1.04167786      -1.77864284        1 
H      -1.20704803      -1.23507140      -1.53378037        1 
H       2.16230136      -2.91699069       1.27739400        1 
H       2.84315344       2.94056648      -0.14849123        1 
H      -1.22216286       2.23329791       0.72813703        1 
H      -3.62140010       1.66097034       0.52685311        1 
H      -3.12069751       1.44457317      -1.15377743        1 
H      -3.92057030      -0.65951632       0.78934951        1 
H      -3.43201929      -0.94921916      -0.88438840        1 
H      -1.73204129      -1.76541448       1.15356916        1 
H       3.06746144      -2.09863665      -0.01949962        1 
H       2.99061638      -1.36546726       1.61528200        1 
H       3.22687468       1.35478763       0.55945302        1 
H       2.61461402       2.67173138       1.60960798        1 
