29
Lattice="0.0 0.0 0.0 0.0 0.0 0.0 0.0 0.0 0.0" Properties=species:S:1:pos:R:3:Z:I:1 pbc="F F F"
C       0.74307238      -0.80591618      -0.59794275        6 
C       0.52530869       0.74324771      -0.77145933        6 
C      -0.40910208      -1.74764947      -0.30288360        6 
C      -0.89537946       1.27461767      -0.65558866        6 
O      -1.49990799      -1.15544295       0.20187484        8 
O      -0.31843143      -2.94054757      -0.47881796        8 
O      -1.22818922       1.62259016       0.59741533        8 
O      -1.60717647       1.46815319      -1.61360064        8 
C      -2.56397283       2.11622702       0.77839276        6 
C      -2.60685650      -2.01813448       0.52582126        6 
C       1.77811219      -0.82930749       0.57469955        6 
C       3.16131945      -0.40944979       0.03464424        6 
C       2.95100618       1.12495425      -0.14562846        6 
C       1.48879862       1.28306986       0.32667569        6 
O       1.38108175       0.29426111       1.36245485        8 
H       1.19857270      -1.21888436      -1.49815177        1 
H       0.84666459       1.03627514      -1.77104760        1 
H      -2.71944717       3.03153454       0.20448165        1 
H      -2.30884062      -2.75169525       1.27596729        1 
H       1.75582864      -1.73684158       1.17323309        1 
H       3.93446413      -0.62113488       0.77432118        1 
H       3.42356945      -0.92665343      -0.88954154        1 
H       3.61854652       1.69537282       0.50161853        1 
H       3.10012351       1.46598830      -1.17194350        1 
H       1.22139804       2.25767491       0.72385061        1 
H      -3.28914452       1.36676553       0.45628148        1 
H      -2.65948254       2.30966703       1.84460267        1 
H      -2.95863905      -2.53505160      -0.36766816        1 
H      -3.37840747      -1.36024179       0.91896706        1 
