29
Lattice="0.0 0.0 0.0 0.0 0.0 0.0 0.0 0.0 0.0" Properties=species:S:1:pos:R:3:Z:I:1 pbc="F F F"
C      -0.54922623       0.59629990      -0.82563470        6 
C      -0.51254040      -0.89100921      -0.36631619        6 
C       0.58811996       1.51574321      -0.41778274        6 
C       0.80987438      -1.55971025      -0.05302356        6 
O       1.09390685       1.22646283       0.79092552        8 
O       0.92150070       2.47706330      -1.07127861        8 
O       1.83521978      -0.98829447      -0.71259769        8 
O       0.90648470      -2.59695324       0.55754124        8 
C       3.11483704      -1.63485816      -0.58664367        6 
C       2.11755107       2.10958089       1.27871855        6 
C      -1.83276307       1.05169619      -0.05207352        6 
C      -3.08528562       0.33987788      -0.62266588        6 
C      -2.97651112      -1.06270986       0.05441643        6 
C      -1.60400560      -0.93404144       0.74329385        6 
O      -1.64729903       0.41985554       1.22034518        8 
H      -0.66118212       0.70110676      -1.90304016        1 
H      -0.86183991      -1.49894329      -1.20969033        1 
H       3.43962130      -1.63070864       0.45498623        1 
H       1.72982739       3.12442179       1.37960686        1 
H      -1.92236799       2.12839719       0.07532717        1 
H      -3.99175314       0.86366480      -0.31765346        1 
H      -3.07489604       0.29382868      -1.71364287        1 
H      -3.75752734      -1.20077923       0.80332281        1 
H      -3.02698160      -1.89310968      -0.65255058        1 
H      -1.39504615      -1.62024119       1.55876142        1 
H       3.05834659      -2.66498113      -0.94125142        1 
H       3.79452091      -1.05090466      -1.20308871        1 
H       2.97007638       2.11789249       0.59735264        1 
H       2.40345775       1.71121729       2.24956802        1 
