29
Lattice="0.0 0.0 0.0 0.0 0.0 0.0 0.0 0.0 0.0" Properties=species:S:1:pos:R:3:Z:I:1 pbc="F F F"
C       0.78076135      -0.76305979      -0.72124059        6 
C       0.47135110       0.77347772      -0.66866546        6 
C      -0.27858572      -1.76108486      -0.28422823        6 
C      -0.99918117       1.14778756      -0.69413168        6 
O      -1.31429242      -1.20923207       0.36261920        8 
O      -0.14167394      -2.95236097      -0.43556822        8 
O      -1.40272135       1.79346440       0.41391848        8 
O      -1.71218089       0.94124353      -1.64677241        8 
C      -2.79533077       2.15126983       0.45657784        6 
C      -2.32030447      -2.11177460       0.85781102        6 
C       1.93333139      -0.82975941       0.32870497        6 
C       3.18391393      -0.08672179      -0.19525069        6 
C       2.78803959       1.39851926       0.06537947        6 
C       1.33366744       1.22415502       0.54564224        6 
O       1.42942581       0.03730548       1.35324249        8 
H       1.11325148      -1.08331741      -1.70809040        1 
H       0.85881829       1.21978288      -1.58864722        1 
H      -3.04728986       2.81615375      -0.37076751        1 
H      -1.87394540      -2.84578812       1.52935778        1 
H       2.10742296      -1.82563111       0.72834717        1 
H       4.06700202      -0.37530358       0.37582543        1 
H       3.37761247      -0.30210959      -1.24794010        1 
H       3.39394444       1.83554766       0.86022228        1 
H       2.87278669       2.03239541      -0.81958610        1 
H       0.91399132       2.03535993       1.13108551        1 
H      -3.41375139       1.25436704       0.39632356        1 
H      -2.93748789       2.65273522       1.41134866        1 
H      -2.80759211      -2.62554432       0.02791650        1 
H      -3.03118754      -1.48501791       1.39155777        1 
