29
Lattice="0.0 0.0 0.0 0.0 0.0 0.0 0.0 0.0 0.0" Properties=species:S:1:pos:R:3:Z:I:1 pbc="F F F"
C      -0.87225274       0.54938553      -0.75847304        6 
C      -0.15381117      -0.82415653      -0.56277618        6 
C      -0.09696613       1.82214374      -0.45749256        6 
C       1.35571032      -0.80249135      -0.41924942        6 
O       0.44023858       1.82840664       0.77089960        8 
O      -0.06853122       2.76678524      -1.21113108        8 
O       1.79819511      -2.00178125       0.01797697        8 
O       2.08856788       0.11291612      -0.69639998        8 
C       3.22695812      -2.14488081       0.13727423        6 
C       1.24643141       2.97267421       1.09801108        6 
C      -2.04737015       0.37009073       0.25910682        6 
C      -3.05236923      -0.67317841      -0.28394738        6 
C      -2.29920180      -2.00511143       0.02262673        6 
C      -0.97545036      -1.46083928       0.59873889        6 
O      -1.41795097      -0.32155900       1.34438957        8 
H      -1.23806768       0.66659872      -1.77676346        1 
H      -0.30594906      -1.42542108      -1.46640760        1 
H       3.70600105      -2.00068074      -0.83226207        1 
H       0.66910665       3.89316371       1.00122138        1 
H      -2.48176718       1.30115088       0.61611176        1 
H      -3.99494492      -0.61251104       0.26156804        1 
H      -3.26620175      -0.53166793      -1.34504807        1 
H      -2.82246868      -2.58735667       0.78247603        1 
H      -2.15556133      -2.63823859      -0.85503850        1 
H      -0.41576431      -2.13573314       1.23911571        1 
H       3.62335890      -1.41723707       0.84664587        1 
H       3.38630713      -3.15863134       0.49768777        1 
H       2.11216704       3.01354641       0.43503846        1 
H       1.55956026       2.82063128       2.12857008        1 
