29
Lattice="0.0 0.0 0.0 0.0 0.0 0.0 0.0 0.0 0.0" Properties=species:S:1:pos:R:3:Z:I:1 pbc="F F F"
C      -0.85466586       0.53388276       0.69788501        6 
C       0.71437162       0.49868404       0.67377631        6 
C      -1.55965681      -0.81046249       0.60932264        6 
C       1.35227483      -0.79896973       0.20214638        6 
O      -1.93212621      -1.11747020      -0.64350081        8 
O      -1.80677107      -1.48948405       1.57652500        8 
O       2.68408421      -0.62745814       0.05186739        8 
O       0.80065755      -1.85295622       0.01545459        8 
C       3.42568114      -1.78871499      -0.37010939        6 
C      -2.48848097      -2.43086184      -0.82738598        6 
C      -1.14470344       1.55244835      -0.44382100        6 
C      -0.95079486       2.97671621       0.11159284        6 
C       0.59865142       3.01210205       0.27816882        6 
C       0.99999642       1.65010433      -0.33299280        6 
O      -0.01198439       1.41495339      -1.32025541        8 
H      -1.17268820       0.93840550       1.65963544        1 
H       1.13417907       0.71199692       1.65924565        1 
H       3.32947818      -2.58927593       0.36483720        1 
H      -3.39164651      -2.55468115      -0.22766292        1 
H      -2.05955933       1.36939836      -0.99900238        1 
H      -1.28636810       3.71246367      -0.62088944        1 
H      -1.49191896       3.14906998       1.04412737        1 
H       1.04485161       3.82963562      -0.28930636        1 
H       0.91892586       3.10925765       1.31771234        1 
H       1.98483818       1.60955783      -0.78864858        1 
H       3.06172585      -2.14118753      -1.33620888        1 
H       4.45934721      -1.45907187      -0.44614170        1 
H      -1.75202918      -3.18266185      -0.54062948        1 
H      -2.71820029      -2.50195579      -1.88838340        1 
