29
Lattice="0.0 0.0 0.0 0.0 0.0 0.0 0.0 0.0 0.0" Properties=species:S:1:pos:R:3:Z:I:1 pbc="F F F"
C      -0.59325976      -0.89790477       0.48242702        6 
C      -0.38507557       0.64758953       0.59814781        6 
C       0.59046746      -1.71562353      -0.00598984        6 
C       0.85585091       1.20167045      -0.07097146        6 
O       1.62246253      -1.59345333       0.85636386        8 
O       0.59491738      -2.44410952      -0.96389890        8 
O       1.11434391       2.44256279       0.40264562        8 
O       1.51077512       0.67055858      -0.93084147        8 
C       2.23177930       3.12476238      -0.19794192        6 
C       2.84154146      -2.25365284       0.47073571        6 
C      -1.83751789      -0.97921096      -0.43884206        6 
C      -3.09515365      -0.67899616       0.40075623        6 
C      -2.92128016       0.85143721       0.64974148        6 
C      -1.64773453       1.14594022      -0.17736684        6 
O      -1.72535371       0.20504709      -1.24922838        8 
H      -0.82238186      -1.29184042       1.47663995        1 
H      -0.39282553       0.99034692       1.63213828        1 
H       3.15335561       2.56601170      -0.02759857        1 
H       3.20165963      -1.84202401      -0.47328225        1 
H      -1.86619404      -1.85843198      -1.07519564        1 
H      -3.99520720      -0.88695573      -0.17953786        1 
H      -3.13857244      -1.26452410       1.32119283        1 
H      -3.76540364       1.41940080       0.25645721        1 
H      -2.80209748       1.10877132       1.70422292        1 
H      -1.56503134       2.15691574      -0.57063689        1 
H       2.07591093       3.24097938      -1.27145914        1 
H       2.27610195       4.09489892       0.29188851        1 
H       2.67893285      -3.32697541       0.36203302        1 
H       3.54784270      -2.05205731       1.27324882        1 
