29
Lattice="0.0 0.0 0.0 0.0 0.0 0.0 0.0 0.0 0.0" Properties=species:S:1:pos:R:3:Z:I:1 pbc="F F F"
C       0.61895676      -0.75788447      -0.76279758        6 
C       0.68307330       0.82019223      -0.65566898        6 
C      -0.75320953      -1.39207930      -0.60228309        6 
C      -0.63918255       1.55525865      -0.55983387        6 
O      -1.12198943      -1.53736975       0.67830256        8 
O      -1.41130786      -1.78887508      -1.53656314        8 
O      -1.25964563       1.36915327       0.61711389        8 
O      -1.07808607       2.25321126      -1.44353856        8 
C      -2.53408659       2.01971021       0.77283529        6 
C      -2.41684796      -2.11818958       0.90509943        6 
C       1.62472489      -1.14513390       0.35747414        6 
C       3.06040296      -0.80911044      -0.10952209        6 
C       3.08644163       0.73814430       0.08656084        6 
C       1.63965029       0.99017023       0.56494972        6 
O       1.37353746      -0.16163104       1.36752894        8 
H       0.96136527      -1.06890891      -1.74887642        1 
H       1.14031138       1.21404370      -1.56226175        1 
H      -2.42663442       3.10175116       0.68328444        1 
H      -2.46784243      -3.12444073       0.48592897        1 
H       1.48105009      -2.13988423       0.77136204        1 
H       3.79349557      -1.30477603       0.52783341        1 
H       3.24438207      -1.11651779      -1.14069615        1 
H       3.79224425       1.02688101       0.86673581        1 
H       3.33842411       1.28716277      -0.82227481        1 
H       1.48005654       1.89275145       1.15030449        1 
H      -3.23557628       1.66687794       0.01490830        1 
H      -2.87451124       1.74801127       1.76947176        1 
H      -3.19408426      -1.50209533       0.44948955        1 
H      -2.53443609      -2.14469946       1.98604011        1 
