29
Lattice="0.0 0.0 0.0 0.0 0.0 0.0 0.0 0.0 0.0" Properties=species:S:1:pos:R:3:Z:I:1 pbc="F F F"
C      -0.42304966      -0.68436327       0.47262781        6 
C      -0.51707058       0.87823023       0.59275469        6 
C       0.86999314      -1.27443382      -0.04800337        6 
C       0.60729511       1.66716163      -0.06502498        6 
O       1.10371257      -2.45917626       0.56997165        8 
O       1.57625701      -0.83641232      -0.91850060        8 
O       1.57945955       1.92268296       0.84513456        8 
O       0.67504218       1.98957918      -1.21932040        8 
C       2.77043491       2.53857907       0.31976886        6 
C       2.25274082      -3.19357062       0.10655297        6 
C      -1.64887592      -0.99582802      -0.45185899        6 
C      -2.92874360      -0.94992422       0.40856292        6 
C      -3.04057498       0.58376307       0.67036973        6 
C      -1.85403652       1.12064957      -0.16469492        6 
O      -1.76647510       0.18052425      -1.24591133        8 
H      -0.58699513      -1.12985339       1.45334487        1 
H      -0.56833218       1.16858220       1.64181357        1 
H       3.21813846       1.89471535      -0.43864767        1 
H       3.16595090      -2.62321403       0.28347821        1 
H      -1.52974185      -1.86810156      -1.09096536        1 
H      -3.77685982      -1.31444577      -0.17288522        1 
H      -2.85706944      -1.54674997       1.31955466        1 
H      -3.98339784       0.98505301       0.29669866        1 
H      -2.95843164       0.84712779       1.72727595        1 
H      -1.96642456       2.12349935      -0.56760630        1 
H       2.53744985       3.50849397      -0.12210327        1 
H       3.43725858       2.65596612       1.17143251        1 
H       2.16499462      -3.40696725      -0.95985504        1 
H       2.25940978      -4.11541014       0.68394807        1 
