29
Lattice="0.0 0.0 0.0 0.0 0.0 0.0 0.0 0.0 0.0" Properties=species:S:1:pos:R:3:Z:I:1 pbc="F F F"
C      -0.92622488      -0.03969127      -0.87483945        6 
C       0.43885398      -0.61565613      -0.41721856        6 
C      -1.40564625       1.34160628      -0.43229941        6 
C       1.69920251       0.22555834      -0.37847760        6 
O      -0.62251008       1.94450436       0.45960147        8 
O      -2.49179664       1.76174555      -0.76690199        8 
O       2.74651984      -0.60913697      -0.13220460        8 
O       1.83211060       1.41099910      -0.52111504        8 
C       4.04001659       0.01369314      -0.03766714        6 
C      -1.11315222       3.18021329       1.00654621        6 
C      -1.84695519      -1.01942537      -0.06464067        6 
C      -1.62031136      -2.50167004      -0.45570613        6 
C      -0.33763892      -2.85448832       0.36323499        6 
C       0.04728926      -1.44928480       0.85821541        6 
O      -1.23209437      -0.92165436       1.23227331        8 
H      -1.07583752      -0.11538352      -1.95187354        1 
H       0.70379920      -1.35496011      -1.18112669        1 
H       4.29105061       0.51848200      -0.97188755        1 
H      -2.03937884       3.00778581       1.55748578        1 
H      -2.88364380      -0.69950762      -0.01489244        1 
H      -2.47294018      -3.10873384      -0.15030690        1 
H      -1.48992307      -2.62710682      -1.53296556        1 
H      -0.57348066      -3.50140383       1.20976609        1 
H       0.44505621      -3.32908169      -0.23095448        1 
H       0.73965024      -1.38762659       1.69285170        1 
H       4.05697813       0.73994395       0.77674020        1 
H       4.73874700      -0.79674561       0.15854717        1 
H      -1.29430553       3.90337179       0.21053767        1 
H      -0.32751480       3.53061589       1.67177997        1 
