29
Lattice="0.0 0.0 0.0 0.0 0.0 0.0 0.0 0.0 0.0" Properties=species:S:1:pos:R:3:Z:I:1 pbc="F F F"
C       0.17957571       1.05816789       0.36371727        6 
C       0.52541476      -0.42226316       0.72681485        6 
C      -1.23179104       1.36016769      -0.10369741        6 
C      -0.35972300      -1.46763122       0.05482892        6 
O      -2.10948730       1.11255570       0.88973965        8 
O      -1.52608963       1.87538053      -1.15257619        8 
O       0.22551394      -2.68297371       0.11125744        8 
O      -1.45528106      -1.28936013      -0.41398169        8 
C      -0.51914233      -3.77212958      -0.46741658        6 
C      -3.49951923       1.24867281       0.54609176        6 
C       1.30857289       1.40960487      -0.64139554        6 
C       2.54404010       1.83800211       0.16806469        6 
C       2.92064305       0.48049136       0.83894734        6 
C       1.95700644      -0.49710305       0.12305466        6 
O       1.72655424       0.12704027      -1.15049315        8 
H       0.29066693       1.65594146       1.27348486        1 
H       0.50003877      -0.60924282       1.80249230        1 
H      -1.46151563      -3.91440411       0.06405806        1 
H      -3.75774184       0.52292110      -0.22666348        1 
H       0.99740106       2.04969175      -1.46139553        1 
H       3.33356438       2.17986709      -0.50285706        1 
H       2.33249382       2.63352592       0.88500197        1 
H       3.95786855       0.20698574       0.64245420        1 
H       2.77424358       0.48248038       1.92163221        1 
H       2.32939495      -1.50653660      -0.01852911        1 
H      -0.72483398      -3.57328763      -1.51980563        1 
H       0.11808268      -4.64691023      -0.35861946        1 
H      -3.71223528       2.25711383       0.18863713        1 
H      -4.04793306       1.04233252       1.46282127        1 
