29
Lattice="0.0 0.0 0.0 0.0 0.0 0.0 0.0 0.0 0.0" Properties=species:S:1:pos:R:3:Z:I:1 pbc="F F F"
C      -0.92878729      -0.36279159      -0.74497371        6 
C       0.61472153      -0.61981276      -0.62344653        6 
C      -1.38500018       1.08359710      -0.61323190        6 
C       1.47874292       0.55474109      -0.19907512        6 
O      -1.69856836       1.41238377       0.64887499        8 
O      -1.51965768       1.82083895      -1.56027223        8 
O       2.77204665       0.16324458      -0.14337174        8 
O       1.11867383       1.67678030       0.04846993        8 
C       3.72137409       1.17412909       0.24766803        6 
C      -2.02308016       2.79460435       0.87478765        6 
C      -1.46901877      -1.33431028       0.34488840        6 
C      -1.42983816      -2.77703843      -0.20209841        6 
C       0.10175825      -3.06465174      -0.16692373        6 
C       0.63557972      -1.75223408       0.44909131        6 
O      -0.41873885      -1.34809258       1.32616777        8 
H      -1.26115057      -0.66425881      -1.73908731        1 
H       1.02883893      -0.97648585      -1.56858548        1 
H       3.70821997       2.00226955      -0.46247044        1 
H      -2.88874106       3.08981037       0.27976032        1 
H      -2.39862704      -1.02277009       0.81116359        1 
H      -1.97399361      -3.44695511       0.46513633        1 
H      -1.86284140      -2.86429942      -1.20032801        1 
H       0.33490096      -3.90868220       0.48361773        1 
H       0.52885160      -3.26819287      -1.15076049        1 
H       1.57086831      -1.83145595       0.99621750        1 
H       3.48656528       1.55074539       1.24419021        1 
H       4.68971341       0.67900794       0.24218781        1 
H      -1.16771849       3.41809076       0.61124177        1 
H      -2.24139364       2.87020872       1.93779791        1 
