29
Lattice="0.0 0.0 0.0 0.0 0.0 0.0 0.0 0.0 0.0" Properties=species:S:1:pos:R:3:Z:I:1 pbc="F F F"
C       0.59657398       0.85363799       0.34726254        6 
C       0.26816327      -0.62379901       0.67700342        6 
C      -0.48932657       1.87361919       0.07282113        6 
C      -0.89513286      -1.22937922      -0.09290696        6 
O      -1.69023290       1.49118734       0.53539115        8 
O      -0.24880231       2.99556866      -0.30825836        8 
O      -1.17967510      -2.45456448       0.41535283        8 
O      -1.48107830      -0.74947657      -1.02627822        8 
C      -2.22544589      -3.18335909      -0.25314871        6 
C      -2.75699880       2.44847845       0.41041641        6 
C       1.76126716       0.72386125      -0.68264117        6 
C       3.06799992       0.59569693       0.12057362        6 
C       2.83507519      -0.79164142       0.79911045        6 
C       1.55709784      -1.28061599       0.07209977        6 
O       1.61587597      -0.61119970      -1.19573133        8 
H       1.02467677       1.27947632       1.26342311        1 
H       0.14609361      -0.82002424       1.74131626        1 
H      -3.16586288      -2.63223933      -0.20310083        1 
H      -2.92931220       2.68319678      -0.64070089        1 
H       1.74322620       1.44656006      -1.49316762        1 
H       3.92272341       0.56578003      -0.55654964        1 
H       3.21577433       1.41023147       0.83173857        1 
H       3.66512515      -1.47494700       0.61697228        1 
H       2.69102089      -0.72160306       1.87963889        1 
H       1.48289966      -2.35514145      -0.07603761        1 
H      -1.96487360      -3.35217763      -1.29918569        1 
H      -2.30726874      -4.12867810       0.27913126        1 
H      -2.51682789       3.36481737       0.95202085        1 
H      -3.63105634       1.96342820       0.83917754        1 
