29
Lattice="0.0 0.0 0.0 0.0 0.0 0.0 0.0 0.0 0.0" Properties=species:S:1:pos:R:3:Z:I:1 pbc="F F F"
C      -0.57119852      -0.91321625       0.47267086        6 
C      -0.61157529       0.62773123       0.78311097        6 
C       0.74451268      -1.49409050      -0.01766400        6 
C       0.64967528       1.42053316       0.50252074        6 
O       1.76956233      -1.07641718       0.75186269        8 
O       0.86123436      -2.29957470      -0.90631510        8 
O       1.04967815       1.29742500      -0.77656963        8 
O       1.20863606       2.11461213       1.31708619        8 
C       2.25527165       1.99255654      -1.13641280        6 
C       3.07281641      -1.57853138       0.40530087        6 
C      -1.72267739      -1.05738217      -0.54982795        6 
C      -3.07611135      -0.94992059       0.18678515        6 
C      -3.12843385       0.57894916       0.49243168        6 
C      -1.80021514       1.05109593      -0.14109098        6 
O      -1.65864078       0.18335164      -1.26921080        8 
H      -0.79053333      -1.46479425       1.39212333        1 
H      -0.83891672       0.80841014       1.83211083        1 
H       2.13933975       3.06717216      -0.98779685        1 
H       3.31838627      -1.31339308      -0.62433023        1 
H      -1.60322959      -1.89008773      -1.23638908        1 
H      -3.88998193      -1.25188847      -0.47335592        1 
H      -3.11733233      -1.57112782       1.08379969        1 
H      -3.97254220       1.05685634      -0.00674818        1 
H      -3.19130181       0.80768451       1.55804843        1 
H      -1.77474955       2.08850668      -0.46790931        1 
H       3.09162279       1.63651638      -0.53190988        1 
H       2.41584372       1.76532734      -2.18785756        1 
H       3.10453448      -2.66386247       0.51281104        1 
H       3.75965869      -1.10262355       1.10131515        1 
