29
Lattice="0.0 0.0 0.0 0.0 0.0 0.0 0.0 0.0 0.0" Properties=species:S:1:pos:R:3:Z:I:1 pbc="F F F"
C       0.55174372      -0.74877001      -0.68890903        6 
C       0.51954581       0.79841779      -0.37841817        6 
C      -0.50009416      -1.63573562      -0.01944673        6 
C      -0.77478544       1.41398573       0.11428680        6 
O      -1.75402232      -1.20425159      -0.25172150        8 
O      -0.25437788      -2.63276454       0.61154632        8 
O      -1.66491418       1.49883297      -0.89415710        8 
O      -0.95436393       1.89767451       1.20509750        8 
C      -2.95332906       2.03801315      -0.55826725        6 
C      -2.81281984      -1.99079198       0.32801298        6 
C       1.93571196      -1.09273210      -0.08788384        6 
C       3.07639887      -0.39786093      -0.86913340        6 
C       3.00754532       1.05201562      -0.29700120        6 
C       1.73929423       0.94670203       0.57082721        6 
O       1.88232499      -0.35908023       1.14757775        8 
H       0.48211041      -0.92574952      -1.76496785        1 
H       0.71408363       1.31537215      -1.32184832        1 
H      -3.43886015       1.41370509       0.19408883        1 
H      -2.71710418      -2.01274870       1.41416489        1 
H       2.07168268      -2.14898156       0.12064551        1 
H       4.03280709      -0.87170813      -0.64668703        1 
H       2.92534153      -0.44041754      -1.95055841        1 
H       3.87193295       1.26942671       0.33222122        1 
H       2.94212599       1.82314954      -1.06738747        1 
H       1.60993571       1.68723297       1.35469947        1 
H      -2.85895822       3.05466654      -0.17372978        1 
H      -3.52285648       2.02897414      -1.48504971        1 
H      -2.78547516      -3.01061449      -0.05826811        1 
H      -3.73451693      -1.49430811       0.03225852        1 
