29
Lattice="0.0 0.0 0.0 0.0 0.0 0.0 0.0 0.0 0.0" Properties=species:S:1:pos:R:3:Z:I:1 pbc="F F F"
C       0.56249406      -0.72315615      -0.78038395        6 
C       0.62599607       0.82872140      -0.54449857        6 
C      -0.67233708      -1.58060785      -0.55024315        6 
C      -0.58731318       1.73838786      -0.47610466        6 
O      -1.29605202      -1.36239156       0.60956475        8 
O      -0.94746593      -2.50080405      -1.29053862        8 
O      -1.62569282       1.26302524       0.21901253        8 
O      -0.57354073       2.84220495      -0.97554527        8 
C      -2.76137883       2.13963963       0.34455225        6 
C      -2.38851542      -2.24245815       0.91949926        6 
C       1.63912126      -1.17444559       0.26691034        6 
C       3.04579179      -0.69385549      -0.16763770        6 
C       3.00652308       0.80213886       0.27124034        6 
C       1.54072187       0.91560667       0.73235656        6 
O       1.33224371      -0.33769942       1.38561113        8 
H       0.87528767      -0.95704355      -1.79639517        1 
H       1.17680662       1.25199851      -1.38424482        1 
H      -2.47660592       3.06342114       0.84993694        1 
H      -2.04204631      -3.27498231       0.98956886        1 
H       1.57168902      -2.22096376       0.55631467        1 
H       3.81898485      -1.24827747       0.36548275        1 
H       3.21465128      -0.82395217      -1.23823536        1 
H       3.67664157       0.98556354       1.11265968        1 
H       3.25934349       1.50027723      -0.52799009        1 
H       1.31018931       1.73296794       1.41170992        1 
H      -3.16841320       2.37958579      -0.63878497        1 
H      -3.48600667       1.58509441       0.93663246        1 
H      -3.16189252      -2.17720384       0.15219926        1 
H      -2.76872875      -1.89946056       1.87916252        1 
