29
Lattice="0.0 0.0 0.0 0.0 0.0 0.0 0.0 0.0 0.0" Properties=species:S:1:pos:R:3:Z:I:1 pbc="F F F"
C      -0.04777555       0.86020743       0.61944155        6 
C       0.95901600      -0.33424362       0.74773295        6 
C      -1.49014333       0.51831318       0.29166916        6 
C       0.40097072      -1.73884523       0.56734383        6 
O      -2.19301594       1.65641569       0.09385395        8 
O      -1.98470903      -0.57817201       0.23297868        8 
O       0.23216265      -2.06015030      -0.72469947        8 
O       0.22478439      -2.50469208       1.48451785        8 
C      -0.39174763      -3.32888484      -0.98155939        6 
C      -3.59139995       1.49112021      -0.21165205        6 
C       0.64331467       1.72206356      -0.47896141        6 
C       1.88941257       2.41210769       0.11759063        6 
C       2.88337651       1.21319968       0.19907082        6 
C       2.00371471       0.06495404      -0.34017744        6 
O       1.20500584       0.72425600      -1.33595796        8 
H      -0.09479528       1.41771978       1.55859800        1 
H       1.40297601      -0.33501437       1.74250698        1 
H       0.18425354      -4.14088178      -0.53513407        1 
H      -4.10319575       0.98441539       0.60793779        1 
H      -0.03265003       2.36168833      -1.03893326        1 
H       2.25192025       3.18558709      -0.56084571        1 
H       1.68963447       2.87630205       1.08526651        1 
H       3.74581821       1.36624929      -0.45135335        1 
H       3.25035780       1.02271719       1.20945799        1 
H       2.53190822      -0.77072378      -0.79049322        1 
H      -1.40282917      -3.32857019      -0.57121008        1 
H      -0.41766401      -3.42479637      -2.06491792        1 
H      -3.71401734       0.90961550      -1.12649915        1 
H      -3.97953442       2.49873128      -0.34232424        1 
