29
Lattice="0.0 0.0 0.0 0.0 0.0 0.0 0.0 0.0 0.0" Properties=species:S:1:pos:R:3:Z:I:1 pbc="F F F"
C       0.53961110       0.94523014       0.48696511        6 
C       0.41746850      -0.61006031       0.60768172        6 
C      -0.68263679       1.69024308      -0.02339697        6 
C      -0.80088055      -1.24132633      -0.03500188        6 
O      -1.69053088       1.58783009       0.87002234        8 
O      -0.73804997       2.34465617      -1.03157707        8 
O      -0.91489475      -2.52417783       0.38111292        8 
O      -1.55550911      -0.73158260      -0.82266616        8 
C      -1.99889243      -3.28046454      -0.19192987        6 
C      -2.95321291       2.13918803       0.45434300        6 
C       1.77703347       1.08747753      -0.43501948        6 
C       3.05104901       0.84795333       0.39907895        6 
C       2.96026985      -0.69100546       0.63766975        6 
C       1.69602181      -1.04509139      -0.17902526        6 
O       1.71778082      -0.09864860      -1.24877066        8 
H       0.74187685       1.35650132       1.47937667        1 
H       0.45698847      -0.94700921       1.64331986        1 
H      -2.95457398      -2.80308266       0.02933705        1 
H      -3.30927977       1.61149604      -0.43178554        1 
H       1.76048531       1.96765925      -1.07031674        1 
H       3.93730545       1.10822910      -0.18118801        1 
H       3.06550270       1.42896237       1.32323227        1 
H       3.82870903      -1.21152269       0.23166615        1 
H       2.86531850      -0.96228960       1.69118162        1 
H       1.65741732      -2.05798380      -0.57366584        1 
H      -1.87885588      -3.35927814      -1.27354007        1 
H      -1.94416265      -4.26234052       0.27287696        1 
H      -2.85457279       3.20252440       0.23202230        1 
H      -3.62920124       1.98342025       1.29251623        1 
