29
Lattice="0.0 0.0 0.0 0.0 0.0 0.0 0.0 0.0 0.0" Properties=species:S:1:pos:R:3:Z:I:1 pbc="F F F"
C      -0.55212154      -0.78075610       0.47199592        6 
C      -0.55732083       0.80155449       0.56771200        6 
C       0.69261669      -1.41760887      -0.11795870        6 
C       0.59202893       1.52691499      -0.12105415        6 
O       1.66448565      -1.50888885       0.81175734        8 
O       0.79582489      -1.85882722      -1.23555265        8 
O       1.74210163       1.36908727       0.56631921        8 
O       0.50451606       2.19160763      -1.12170816        8 
C       2.90573602       2.00165065       0.00138495        6 
C       2.91564700      -2.05918449       0.36494848        6 
C      -1.83352960      -1.02726234      -0.36584013        6 
C      -3.06625109      -0.87490105       0.54904984        6 
C      -3.08134173       0.66995740       0.76290881        6 
C      -1.90155705       1.10879315      -0.13582053        6 
O      -1.91636367       0.13941016      -1.19241190        8 
H      -0.65001493      -1.18557879       1.48064448        1 
H      -0.54408458       1.10483092       1.61613959        1 
H       3.08113693       1.63981574      -1.01278705        1 
H       3.32843946      -1.45550511      -0.44516749        1 
H      -1.79445529      -1.91621819      -0.98901158        1 
H      -3.96124541      -1.21053984       0.02352908        1 
H      -2.98489751      -1.44333531       1.47793060        1 
H      -4.01289399       1.11464907       0.41098928        1 
H      -2.94257878       0.96109504       1.80681180        1 
H      -1.96141584       2.10758141      -0.55795991        1 
H       2.77743520       3.08495543      -0.02354656        1 
H       3.72968231       1.72917103       0.65723483        1 
H       2.78232283      -3.08363278       0.01372394        1 
H       3.57055001      -2.03308283       1.23291638        1 
