29
Lattice="0.0 0.0 0.0 0.0 0.0 0.0 0.0 0.0 0.0" Properties=species:S:1:pos:R:3:Z:I:1 pbc="F F F"
C      -0.39424938       0.75950164       0.42788849        6 
C       0.90908946       0.00146913       0.84514870        6 
C      -1.65906317      -0.02052736       0.12697704        6 
C       1.03274965      -1.49825597       0.61563554        6 
O      -2.72633831       0.76027083       0.44217620        8 
O      -1.77642797      -1.11513770      -0.35839354        8 
O       0.86700092      -1.85495686      -0.65865658        8 
O       1.39532634      -2.25735018       1.48781418        8 
C       0.95531961      -3.25915731      -0.94868367        6 
C      -4.02176512       0.20912306       0.14062511        6 
C       0.11478241       1.64623244      -0.76214347        6 
C       0.82040887       2.87911690      -0.16019762        6 
C       2.10633381       2.21224769       0.41987792        6 
C       1.93695844       0.75245370      -0.06619570        6 
O       1.21002516       0.89945301      -1.29127358        8 
H      -0.67433102       1.42203852       1.24754371        1 
H       1.11837360       0.15117059       1.90281655        1 
H       1.93401813      -3.65149654      -0.66753294        1 
H      -4.16992150      -0.73137324       0.67320117        1 
H      -0.61857137       1.83986388      -1.54141255        1 
H       1.06547998       3.58880019      -0.95197155        1 
H       0.21764066       3.39481377       0.58916748        1 
H       3.01053650       2.65240962      -0.00230610        1 
H       2.17471116       2.28173655       1.50730845        1 
H       2.86032273       0.20743603      -0.24860610        1 
H       0.17683793      -3.80148022      -0.40981769        1 
H       0.79974415      -3.33955957      -2.02198706        1 
H      -4.12213068       0.03295928      -0.93172710        1 
H      -4.73887300       0.95598866       0.47438879        1 
