29
Lattice="0.0 0.0 0.0 0.0 0.0 0.0 0.0 0.0 0.0" Properties=species:S:1:pos:R:3:Z:I:1 pbc="F F F"
C       0.07612856       1.07218232       0.44364643        6 
C       0.63014154      -0.38284148       0.64655628        6 
C      -1.31572108       1.19248567      -0.15512402        6 
C      -0.25167532      -1.52079130       0.15682150        6 
O      -2.24557801       1.19453118       0.82290290        8 
O      -1.56604299       1.31883709      -1.32591219        8 
O       0.45263351      -2.67263371       0.12398814        8 
O      -1.42089623      -1.45645839      -0.12618230        8 
C      -0.26995068      -3.84548477      -0.29892689        6 
C      -3.61374213       1.14199390       0.38043973        6 
C       1.16563045       1.66615224      -0.49375364        6 
C       2.40789899       2.02623142       0.34480352        6 
C       2.96793084       0.60555244       0.66039722        6 
C       1.97828254      -0.28816861      -0.12171710        6 
O       1.61650847       0.52536476      -1.24262334        8 
H       0.05493068       1.58594668       1.40526676        1 
H       0.80022039      -0.58486423       1.70776642        1 
H      -1.10430199      -4.04370608       0.37554624        1 
H      -3.77932209       0.22525443      -0.18733875        1 
H       0.79908110       2.42656333      -1.17724788        1 
H       3.11127719       2.60775668      -0.25266321        1 
H       2.15907748       2.60273062       1.23825455        1 
H       3.97874690       0.47928757       0.27046308        1 
H       2.98539977       0.37468281       1.72754653        1 
H       2.36761265      -1.24350580      -0.45989918        1 
H      -0.64967438      -3.71072969      -1.31250175        1 
H       0.45298348      -4.65740822      -0.26443665        1 
H      -3.85188793       2.00646612      -0.24118484        1 
H      -4.21327812       1.14599853       1.28840143        1 
