29
Lattice="0.0 0.0 0.0 0.0 0.0 0.0 0.0 0.0 0.0" Properties=species:S:1:pos:R:3:Z:I:1 pbc="F F F"
C      -0.99612672       0.08975542      -0.77822512        6 
C       0.26700312      -0.81369014      -0.57152381        6 
C      -0.83831033       1.58948983      -0.56407830        6 
C       1.58822433      -0.12616311      -0.28583954        6 
O      -0.72594076       1.91775951       0.73062350        8 
O      -0.91546988       2.39444807      -1.46212871        8 
O       2.55492871      -1.06111078      -0.13761024        8 
O       1.79840510       1.05692380      -0.20558855        8 
C       3.87857030      -0.56440617       0.13927113        6 
C      -0.46872099       3.30427619       1.00749662        6 
C      -1.96396522      -0.56371826       0.25692252        6 
C      -2.44490553      -1.93203279      -0.27624772        6 
C      -1.18040815      -2.81269718      -0.02957201        6 
C      -0.21326646      -1.76812286       0.56694118        6 
O      -1.08569009      -0.93182295       1.32983143        8 
H      -1.36799586      -0.01324498      -1.79660111        1 
H       0.44830192      -1.39888444      -1.47684674        1 
H       4.22886138       0.06305113      -0.68157676        1 
H      -1.26579004       3.93396547       0.60938015        1 
H      -2.74131880       0.09747949       0.63080311        1 
H      -3.29532789      -2.28594854       0.30791646        1 
H      -2.74720760      -1.89124478      -1.32445834        1 
H      -1.38110539      -3.59613837       0.70233131        1 
H      -0.79223608      -3.28260869      -0.93512201        1 
H       0.58165562      -2.15823342       1.19631850        1 
H       3.88083114       0.01616365       1.06278048        1 
H       4.50392462      -1.44861158       0.23979203        1 
H       0.48400440       3.59503100       0.56243984        1 
H      -0.42365044       3.37826653       2.09185607        1 
