29
Lattice="0.0 0.0 0.0 0.0 0.0 0.0 0.0 0.0 0.0" Properties=species:S:1:pos:R:3:Z:I:1 pbc="F F F"
C      -0.52145057       0.55872292      -0.87731861        6 
C      -0.38362721      -0.85270845      -0.24868041        6 
C       0.35185776       1.69623279      -0.33917297        6 
C       0.94594433      -1.53227905      -0.00607163        6 
O       1.31207274       1.30123117       0.50614410        8 
O       0.09734052       2.85870394      -0.55391378        8 
O       1.94197081      -1.00073293      -0.73606171        8 
O       1.04306937      -2.58884959       0.57464820        8 
C       3.19030914      -1.71574678      -0.72083355        6 
C       2.04058086       2.35125012       1.16869069        6 
C      -1.93725021       0.89651918      -0.30180998        6 
C      -3.01854820      -0.12198367      -0.74176379        6 
C      -2.78015679      -1.29576730       0.26028317        6 
C      -1.45474637      -0.83275320       0.88932063        6 
O      -1.71395488       0.56800041       1.08464608        8 
H      -0.47559551       0.55794924      -1.96640053        1 
H      -0.77001166      -1.53594944      -1.01762157        1 
H       3.58999081      -1.76100567       0.29321958        1 
H       1.35902161       2.97233918       1.75132710        1 
H      -2.20720603       1.94334834      -0.39754371        1 
H      -4.01396268       0.30874165      -0.63080236        1 
H      -2.90119347      -0.42015510      -1.78612825        1 
H      -3.56276976      -1.33554422       1.01956748        1 
H      -2.70793277      -2.27408334      -0.21862405        1 
H      -1.15340368      -1.30186451       1.82125186        1 
H       3.05519776      -2.73063014      -1.09825838        1 
H       3.85464787      -1.14863021      -1.36911814        1 
H       2.56150008       2.97303938       0.43933796        1 
H       2.75029704       1.84317455       1.81770364        1 
