29
Lattice="0.0 0.0 0.0 0.0 0.0 0.0 0.0 0.0 0.0" Properties=species:S:1:pos:R:3:Z:I:1 pbc="F F F"
C       0.12944621       0.91734161       0.41537046        6 
C       0.75557514      -0.45705394       0.85363002        6 
C      -1.32000854       0.90784704      -0.02231380        6 
C      -0.10987955      -1.69507245       0.66223470        6 
O      -1.95203776       2.00010198       0.47063273        8 
O      -1.86290215       0.09954581      -0.73196716        8 
O      -0.10788220      -2.14801262      -0.59438947        8 
O      -0.64935149      -2.26284184       1.58549047        8 
C      -0.96833216      -3.26489472      -0.87184992        6 
C      -3.33794387       2.14371326       0.10399761        6 
C       1.11538277       1.35391675      -0.72216082        6 
C       2.39311208       1.91290267      -0.06224376        6 
C       3.03143945       0.59845714       0.48426807        6 
C       2.03186166      -0.46135115      -0.03701550        6 
O       1.56363339       0.11400630      -1.26464306        8 
H       0.19244227       1.62119992       1.24415738        1 
H       0.99348969      -0.43316284       1.91606432        1 
H      -0.71137257      -4.11826701      -0.24237201        1 
H      -3.91554208       1.29192452       0.46602103        1 
H       0.67184296       1.96519208      -1.50508194        1 
H       3.02840019       2.37713208      -0.81809960        1 
H       2.18661555       2.65410788       0.71160325        1 
H       4.02112328       0.42968866       0.05839524        1 
H       3.12373197       0.58505878       1.57204839        1 
H       2.44582037      -1.44704493      -0.23186385        1 
H      -2.00739000      -2.98083240      -0.69910474        1 
H      -0.80819977      -3.49648395      -1.92237046        1 
H      -3.44163722       2.21335631      -0.97987172        1 
H      -3.66971254       3.06258505       0.58209151        1 
