29
Lattice="0.0 0.0 0.0 0.0 0.0 0.0 0.0 0.0 0.0" Properties=species:S:1:pos:R:3:Z:I:1 pbc="F F F"
C       0.47722818      -0.76919758      -0.67633785        6 
C       0.78085334       0.76982363      -0.71179163        6 
C      -0.99209676      -1.14893639      -0.69337997        6 
C      -0.28863055       1.76133756      -0.28526032        6 
O      -1.38944735      -1.78534559       0.42217553        8 
O      -1.70833648      -0.95711597      -1.64676975        8 
O      -1.31864107       1.20362599       0.36581772        8 
O      -0.16555546       2.95237089      -0.44956663        8 
C      -2.33857729       2.09740978       0.84777863        6 
C      -2.77963244      -2.15076168       0.47263144        6 
C       1.34415491      -1.22991581       0.53078879        6 
C       2.80110582      -1.38248376       0.05090594        6 
C       3.18545479       0.11051272      -0.18040894        6 
C       1.92437569       0.83249071       0.34849009        6 
O       1.42519207      -0.05504519       1.35681380        8 
H       0.86070261      -1.20457941      -1.60293989        1 
H       1.12363981       1.09777210      -1.69253231        1 
H      -1.90441955       2.84700479       1.51001850        1 
H      -3.02943568      -2.82810620      -0.34527028        1 
H       0.93230569      -2.05460184       1.10287408        1 
H       3.40872311      -1.83009640       0.83854040        1 
H       2.89301376      -1.99874130      -0.84576255        1 
H       4.06190380       0.39652095       0.40213727        1 
H       3.38456925       0.34609643      -1.22768847        1 
H       2.08611358       1.82387195       0.76425867        1 
H      -2.83240453       2.59252904       0.01042835        1 
H      -3.04068928       1.46708823       1.38894810        1 
H      -3.40385248      -1.25865113       0.40216247        1 
H      -2.91659880      -2.64066606       1.43416598        1 
