29
Lattice="0.0 0.0 0.0 0.0 0.0 0.0 0.0 0.0 0.0" Properties=species:S:1:pos:R:3:Z:I:1 pbc="F F F"
C      -0.76870525      -0.20449362      -0.76409880        6 
C       0.73211653      -0.39199388      -0.44018114        6 
C      -1.45680537       0.95236863      -0.03833666        6 
C       1.64319016       0.81650167      -0.41700140        6 
O      -2.79636813       0.86733642      -0.24398939        8 
O      -0.94453177       1.84089821       0.58468805        8 
O       2.82374366       0.48856863       0.16422791        8 
O       1.40685329       1.90266941      -0.87374962        8 
C       3.80843845       1.53797655       0.21539844        6 
C      -3.59229890       1.89389135       0.37469272        6 
C      -1.29717956      -1.50178477      -0.06942806        6 
C      -0.65309713      -2.78982761      -0.64384224        6 
C       0.71771423      -2.82129632       0.10536614        6 
C       0.69760333      -1.42074916       0.74147389        6 
O      -0.65880090      -1.35506822       1.21451975        8 
H      -0.98698843      -0.14736881      -1.83057582        1 
H       1.14901705      -0.93509253      -1.29904286        1 
H       4.08420260       1.85236301      -0.79265358        1 
H      -3.29882153       2.87836311       0.00732034        1 
H      -2.37503242      -1.53077069       0.05371884        1 
H      -1.26385416      -3.66152779      -0.40664763        1 
H      -0.54531083      -2.74506235      -1.73008647        1 
H       0.72650225      -3.58726443       0.88264242        1 
H       1.57290886      -2.98397417      -0.55341637        1 
H       1.39104725      -1.22785981       1.55345348        1 
H       3.41944451       2.39612499       0.76494078        1 
H       4.66487592       1.10768684       0.72999635        1 
H      -3.47332081       1.86531685       1.45897277        1 
H      -4.62029514       1.67083237       0.09658812        1 
