29
Lattice="0.0 0.0 0.0 0.0 0.0 0.0 0.0 0.0 0.0" Properties=species:S:1:pos:R:3:Z:I:1 pbc="F F F"
C       0.45419938      -0.76961516      -0.64991206        6 
C       0.78255659       0.75974512      -0.73646060        6 
C      -1.01876396      -1.13091214      -0.69009966        6 
C      -0.25202367       1.77535491      -0.27579136        6 
O      -1.42687674      -1.81160592       0.39592782        8 
O      -1.72984494      -0.88813804      -1.63522307        8 
O      -1.30415847       1.23438811       0.35304416        8 
O      -0.08111036       2.96606469      -0.39230119        8 
C      -2.28800693       2.14925317       0.86916666        6 
C      -2.81814149      -2.17794183       0.41919520        6 
C       1.30794211      -1.20711066       0.57543257        6 
C       2.75354970      -1.43393568       0.09181577        6 
C       3.17972670       0.03125272      -0.22820981        6 
C       1.95681948       0.82406656       0.28828660        6 
O       1.44291479       0.00104765       1.34580737        8 
H       0.84538306      -1.23951973      -1.55721642        1 
H       1.09245176       1.06236781      -1.73624136        1 
H      -1.82230469       2.86417262       1.54800740        1 
H      -3.05956551      -2.82303743      -0.42680987        1 
H       0.86930922      -1.98796232       1.18760040        1 
H       3.35600752      -1.85346109       0.89869637        1 
H       2.81705897      -2.10304692      -0.76867253        1 
H       4.07882002       0.31822594       0.31800401        1 
H       3.36147530       0.20417679      -1.29094809        1 
H       2.16342615       1.82551682       0.65673331        1 
H      -2.77038864       2.68458553       0.05002600        1 
H      -3.00807742       1.52910086       1.39815933        1 
H      -3.44208033      -1.28396908       0.37696095        1 
H      -2.96409723      -2.70474202       1.35964552        1 
