29
Lattice="0.0 0.0 0.0 0.0 0.0 0.0 0.0 0.0 0.0" Properties=species:S:1:pos:R:3:Z:I:1 pbc="F F F"
C      -0.77780722      -0.19460833      -0.79174868        6 
C       0.71565896      -0.44974267      -0.46291895        6 
C      -1.39377409       1.01945681      -0.08830458        6 
C       1.67738378       0.71999027      -0.46199762        6 
O      -2.74622517       0.92136629      -0.11954736        8 
O      -0.81918898       1.97147010       0.36517716        8 
O       2.76192559       0.44259024       0.30022115        8 
O       1.54343220       1.73980373      -1.08419036        8 
C       3.77441241       1.46609719       0.34123973        6 
C      -3.46924300       2.01232559       0.47796641        6 
C      -1.36622128      -1.45420250      -0.08184082        6 
C      -0.78121847      -2.78067879      -0.63130444        6 
C       0.58371635      -2.86474794       0.12426624        6 
C       0.62922800      -1.45331097       0.73335545        6 
O      -0.72408154      -1.31365580       1.20260370        8 
H      -0.98764841      -0.13439356      -1.86021802        1 
H       1.10611569      -1.02164132      -1.31573936        1 
H       4.18550196       1.63678186      -0.65508454        1 
H      -3.25313279       2.94558226      -0.04447131        1 
H      -2.44352766      -1.43281676       0.03998110        1 
H      -1.43327843      -3.61858138      -0.38289059        1 
H      -0.66684178      -2.75941102      -1.71768478        1 
H       0.55191163      -3.61494547       0.91608911        1 
H       1.43240681      -3.08198619      -0.52736096        1 
H       1.32905790      -1.27903152       1.54371392        1 
H       3.35391911       2.39822321       0.72062478        1 
H       4.54174711       1.08776827       1.01318608        1 
H      -3.19766885       2.11785560       1.52926445        1 
H      -4.52084229       1.75154053       0.37848508        1 
