29
Lattice="0.0 0.0 0.0 0.0 0.0 0.0 0.0 0.0 0.0" Properties=species:S:1:pos:R:3:Z:I:1 pbc="F F F"
C       0.68999784      -0.82536413      -0.51580857        6 
C       0.52924356       0.71236198      -0.78993762        6 
C      -0.49166704      -1.73846653      -0.24760474        6 
C      -0.83365821       1.35802510      -0.59066426        6 
O      -1.65574898      -1.11279673      -0.02826803        8 
O      -0.37623607      -2.94226376      -0.26610847        8 
O      -1.14735739       1.53618518       0.70165452        8 
O      -1.50867150       1.76989029      -1.50561467        8 
C      -2.42490410       2.13499917       0.96392054        6 
C      -2.80353142      -1.95559609       0.19312892        6 
C       1.72354406      -0.82913940       0.65911709        6 
C       3.13018305      -0.57053573       0.08404251        6 
C       3.01225119       0.93814281      -0.29703229        6 
C       1.58901874       1.26649349       0.21243409        6 
O       1.43826825       0.39355085       1.34086005        8 
H       1.15441519      -1.28636220      -1.38978521        1 
H       0.79300678       0.93047248      -1.82374366        1 
H      -2.48856700       3.12710982       0.51385034        1 
H      -2.65533451      -2.56996871       1.08194851        1 
H       1.62964194      -1.67378286       1.33680480        1 
H       3.88218238      -0.72419479       0.85929626        1 
H       3.37310001      -1.21818709      -0.75999330        1 
H       3.75339466       1.54180720       0.22815421        1 
H       3.12359371       1.12247355      -1.36746877        1 
H       1.42382111       2.29529915       0.52160224        1 
H      -3.22412811       1.50938000       0.56185239        1 
H      -2.49765390       2.19865246       2.04744921        1 
H      -2.97144264      -2.60088613      -0.66981343        1 
H      -3.63902968      -1.27334080       0.33099164        1 
