29
Lattice="0.0 0.0 0.0 0.0 0.0 0.0 0.0 0.0 0.0" Properties=species:S:1:pos:R:3:Z:I:1 pbc="F F F"
C      -0.05967902       1.01173182       0.47640967        6 
C       0.78307652      -0.29238197       0.71295423        6 
C      -1.40503555       0.78307367      -0.18459171        6 
C      -0.00179742      -1.57907550       0.52177629        6 
O      -2.38761705       1.39459411       0.51116537        8 
O      -1.58928564       0.18222334      -1.21258144        8 
O       0.68341050      -2.50828770      -0.16384147        8 
O      -1.10446176      -1.75971541       0.97919711        8 
C      -0.00453837      -3.75250013      -0.40197450        6 
C      -3.71987062       1.22001397      -0.00687061        6 
C       0.89417234       1.77107829      -0.49779375        6 
C       2.11667207       2.29811844       0.28807208        6 
C       2.93887641       0.98556882       0.47433055        6 
C       2.00733727      -0.04361990      -0.20389028        6 
O       1.44796734       0.71344118      -1.28633262        8 
H      -0.21907646       1.56148981       1.40194006        1 
H       1.09280297      -0.32164675       1.76222516        1 
H      -0.24619985      -4.24183218       0.54264641        1 
H      -3.97589816       0.15986722      -0.02912166        1 
H       0.39959786       2.49132108      -1.14585862        1 
H       2.66306116       3.02976824      -0.30864126        1 
H       1.83557960       2.77213432       1.23068466        1 
H       3.89106611       1.03661074      -0.05517584        1 
H       3.14414425       0.74806676       1.52025062        1 
H       2.48149426      -0.94119200      -0.58715079        1 
H      -0.92235870      -3.56944637      -0.96173294        1 
H       0.68738851      -4.35714749      -0.98380072        1 
H      -3.79732411       1.63167906      -1.01448913        1 
H      -4.37031306       1.75830325       0.67902490        1 
