29
Lattice="0.0 0.0 0.0 0.0 0.0 0.0 0.0 0.0 0.0" Properties=species:S:1:pos:R:3:Z:I:1 pbc="F F F"
C       0.55055976      -0.81078985      -0.59474432        6 
C       0.42771089       0.75233174      -0.43877710        6 
C      -0.54245456      -1.62797425       0.07602495        6 
C      -0.86322562       1.27787458       0.15163125        6 
O      -1.52432941      -1.90069167      -0.82217739        8 
O      -0.59252235      -1.95271702       1.23030460        8 
O      -1.39735226       2.22263201      -0.66224607        8 
O      -1.35916873       0.95374088       1.19935127        8 
C      -2.61900616       2.82829423      -0.19947401        6 
C      -2.68088039      -2.57661460      -0.29326411        6 
C       1.91405128      -1.04340928       0.11342521        6 
C       3.05900908      -0.46492425      -0.75113839        6 
C       2.92723453       1.05989852      -0.44919451        6 
C       1.67555078       1.06119564       0.45290010        6 
O       1.84445644      -0.13070794       1.21620199        8 
H       0.57216994      -1.07696585      -1.65118025        1 
H       0.53987241       1.21748753      -1.41683574        1 
H      -3.39465102       2.07133055      -0.07352072        1 
H      -3.14037746      -1.97738831       0.49431992        1 
H       2.05910604      -2.05340406       0.48764814        1 
H       4.02226845      -0.85625448      -0.42156279        1 
H       2.94270482      -0.70545768      -1.81029682        1 
H       3.78713446       1.42683270       0.11297535        1 
H       2.81589015       1.67438876      -1.34460067        1 
H       1.55984760       1.91341554       1.11871249        1 
H      -2.45737552       3.33613381       0.75266103        1 
H      -2.90008819       3.54089011      -0.97177406        1 
H      -2.40254201      -3.55011194       0.11316616        1 
H      -3.35943230      -2.69375783      -1.13568398        1 
