29
Lattice="0.0 0.0 0.0 0.0 0.0 0.0 0.0 0.0 0.0" Properties=species:S:1:pos:R:3:Z:I:1 pbc="F F F"
C      -0.56858700       0.57257541      -0.85438022        6 
C      -0.45170323      -0.88634514      -0.32350491        6 
C       0.43325626       1.60631986      -0.35412798        6 
C       0.91593225      -1.44020935       0.01100837        6 
O       1.28089906       1.13806377       0.57403851        8 
O       0.38587512       2.76672879      -0.68869095        8 
O       1.80281495      -1.12658257      -0.95675527        8 
O       1.15558645      -2.19872737       0.91742182        8 
C       3.13563733      -1.63614709      -0.78262686        6 
C       2.15026450       2.10177046       1.19500992        6 
C      -1.92478887       0.95471584      -0.18228382        6 
C      -3.08073245       0.06476176      -0.70165942        6 
C      -2.87918467      -1.23376504       0.14077713        6 
C      -1.52615706      -0.91862838       0.80263767        6 
O      -1.69775773       0.46811269       1.15105546        8 
H      -0.60019357       0.63703037      -1.94159257        1 
H      -0.77790310      -1.54845043      -1.13447951        1 
H       3.56858174      -1.24853339       0.14109682        1 
H       1.56209017       2.88405960       1.67593468        1 
H      -2.12114137       2.02329125      -0.16391014        1 
H      -4.04459919       0.53278619      -0.49982273        1 
H      -3.01184750      -0.10806415      -1.77808785        1 
H      -3.65410604      -1.33478546       0.90183335        1 
H      -2.86206620      -2.14510033      -0.46036529        1 
H      -1.24932144      -1.49814278       1.67823908        1 
H       3.12988816      -2.72669277      -0.74742739        1 
H       3.69647324      -1.28277401      -1.64510903        1 
H       2.81211492       2.54945700       0.45233003        1 
H       2.71982794       1.54104751       1.93272312        1 
