29
Lattice="0.0 0.0 0.0 0.0 0.0 0.0 0.0 0.0 0.0" Properties=species:S:1:pos:R:3:Z:I:1 pbc="F F F"
C      -0.54830236      -0.71252605       0.41219196        6 
C      -0.49978219       0.84486267       0.65509023        6 
C       0.70624502      -1.44897176      -0.01451163        6 
C       0.57495080       1.65194130      -0.08091187        6 
O       1.62655805      -1.42151453       0.96770407        8 
O       0.81840518      -2.11770142      -1.01345211        8 
O       1.81903559       1.21616115       0.18994030        8 
O       0.35173600       2.59590427      -0.79663887        8 
C       2.89052360       1.92274520      -0.46429866        6 
C       2.86432719      -2.09869350       0.69635659        6 
C      -1.77214897      -0.84442430      -0.53508739        6 
C      -3.04207036      -0.86960581       0.33500287        6 
C      -3.03805875       0.59528742       0.87215716        6 
C      -1.87913257       1.22176984       0.05922086        6 
O      -1.86519897       0.44729257      -1.15285432        8 
H      -0.78440031      -1.16741946       1.37901554        1 
H      -0.40114765       1.06572186       1.72039761        1 
H       2.80244214       1.82288451      -1.54710071        1 
H       3.35047481      -1.66275881      -0.17819620        1 
H      -1.67071858      -1.61518687      -1.29348079        1 
H      -3.91661441      -1.05845118      -0.28941822        1 
H      -3.01410651      -1.62436092       1.12382824        1 
H      -3.97591723       1.10636611       0.65291957        1 
H      -2.86883934       0.65580639       1.95016508        1 
H      -1.97931535       2.27484493      -0.18278455        1 
H       2.87076780       2.98011528      -0.19753792        1 
H       3.80457826       1.45329643      -0.10722071        1 
H       2.69165326      -3.16114050       0.51751337        1 
H       3.47533460      -1.95319778       1.58452710        1 
