29
Lattice="0.0 0.0 0.0 0.0 0.0 0.0 0.0 0.0 0.0" Properties=species:S:1:pos:R:3:Z:I:1 pbc="F F F"
C       0.51716646       0.89252647       0.37297352        6 
C       0.53608874      -0.59285549       0.83603593        6 
C      -0.77976093       1.63129950       0.11241856        6 
C      -0.60061770      -1.52138881       0.44626933        6 
O      -1.86550899       0.97599350       0.55689996        8 
O      -0.80940962       2.77280393      -0.28406499        8 
O      -1.08333065      -1.28832969      -0.78250886        8 
O      -0.93943988      -2.45918660       1.13167257        8 
C      -2.09839059      -2.19204176      -1.24857524        6 
C      -3.11968793       1.67758605       0.46665797        6 
C       1.58690948       0.91352153      -0.76397443        6 
C       2.97229986       1.03966911      -0.10163326        6 
C       3.07451664      -0.35230562       0.59859638        6 
C       1.81028658      -1.06319274       0.05274472        6 
O       1.61105427      -0.44484881      -1.22447507        8 
H       0.91566137       1.48433137       1.20522450        1 
H       0.65651734      -0.69030656       1.91325342        1 
H      -1.71404688      -3.21246453      -1.28872560        1 
H      -3.34928725       1.91000940      -0.57408569        1 
H       1.36971145       1.59164702      -1.58426487        1 
H       3.74233037       1.15501471      -0.86570468        1 
H       3.04276401       1.88182328       0.58913963        1 
H       3.97361816      -0.88964106       0.29546877        1 
H       3.07411789      -0.28679049       1.68861786        1 
H       1.89215059      -2.14165096      -0.06445703        1 
H      -2.96773826      -2.16281954      -0.58926283        1 
H      -2.35998405      -1.84300122      -2.24509965        1 
H      -3.08151957       2.60302284       1.04283569        1 
H      -3.86015411       0.99657418       0.88024255        1 
