29
Lattice="0.0 0.0 0.0 0.0 0.0 0.0 0.0 0.0 0.0" Properties=species:S:1:pos:R:3:Z:I:1 pbc="F F F"
C      -0.54967487      -0.78449576       0.50016876        6 
C      -0.54922750       0.80166846       0.52370414        6 
C       0.65004442      -1.49617978      -0.10836328        6 
C       0.62546158       1.52941100      -0.11823013        6 
O       1.72345348      -1.41366771       0.69932322        8 
O       0.63319013      -2.14788087      -1.12358753        8 
O       1.74861934       1.37930546       0.60801994        8 
O       0.55932438       2.23062874      -1.09741608        8 
C       2.92276459       2.04008578       0.10221333        6 
C       2.91900017      -2.06262475       0.23144991        6 
C      -1.85657218      -1.05728304      -0.28654800        6 
C      -3.07123311      -0.79702572       0.63077278        6 
C      -3.07608812       0.76175623       0.68120672        6 
C      -1.87213261       1.09149790      -0.22877161        6 
O      -1.90945623       0.04181335      -1.20426998        8 
H      -0.61269122      -1.14606494       1.52872654        1 
H      -0.58049458       1.14006983       1.56154749        1 
H       3.16828129       1.66957223      -0.89439967        1 
H       3.24344119      -1.62632408      -0.71501623        1 
H      -1.85393576      -1.99396340      -0.83586616        1 
H      -3.98053739      -1.18339678       0.16868317        1 
H      -2.96596469      -1.26174048       1.61344025        1 
H      -3.99259524       1.17147117       0.25486576        1 
H      -2.96414370       1.16144781       1.69148534        1 
H      -1.89157637       2.05548097      -0.72790835        1 
H       2.76532335       3.11864382       0.05297850        1 
H       3.71532256       1.79977230       0.80740171        1 
H       2.74747476      -3.13096365       0.09087619        1 
H       3.66275726      -1.89131496       1.00636532        1 
