29
Lattice="0.0 0.0 0.0 0.0 0.0 0.0 0.0 0.0 0.0" Properties=species:S:1:pos:R:3:Z:I:1 pbc="F F F"
C      -0.46546677       0.80017207       0.58965628        6 
C       0.92889880       0.10163201       0.72968806        6 
C      -1.55469258      -0.05257661      -0.02738049        6 
C       0.86169848      -1.41368554       0.64225839        6 
O      -2.76994585       0.39087787       0.36440350        8 
O      -1.39616175      -0.95511887      -0.80951087        8 
O       1.60807957      -1.92152104      -0.34895184        8 
O       0.22690655      -2.08228345       1.42286615        8 
C       1.50021010      -3.34417240      -0.54887069        6 
C      -3.90198637      -0.28450647      -0.21739738        6 
C      -0.09656081       1.93374215      -0.41854427        6 
C       0.80906808       2.97679602       0.27790832        6 
C       2.18007064       2.23249665       0.27425200        6 
C       1.76923195       0.87137193      -0.32564196        6 
O       0.79557049       1.25937794      -1.30944649        8 
H      -0.82895925       1.20197948       1.53378565        1 
H       1.30861727       0.29621575       1.73597239        1 
H       1.80368259      -3.88266708       0.34989732        1 
H      -3.87345646      -1.34774079       0.02402679        1 
H      -0.94184602       2.33702644      -0.97234580        1 
H       0.85037822       3.89639934      -0.30695452        1 
H       0.45668110       3.22730424       1.28041817        1 
H       2.89664652       2.72946321      -0.38106639        1 
H       2.62801400       2.14355792       1.26606559        1 
H       2.55624405       0.29138477      -0.79615659        1 
H       0.47028321      -3.60096803      -0.79925628        1 
H       2.16574408      -3.57034732      -1.37889718        1 
H      -3.90268225      -0.16162287      -1.30179716        1 
H      -4.77782963       0.18690142       0.22280473        1 
