29
Lattice="0.0 0.0 0.0 0.0 0.0 0.0 0.0 0.0 0.0" Properties=species:S:1:pos:R:3:Z:I:1 pbc="F F F"
C       0.50615514      -0.73180742       0.58923618        6 
C      -0.95546401      -0.18614004       0.75897936        6 
C       1.55466594       0.25251628       0.11051896        6 
C      -1.10904209       1.32388255       0.64473919        6 
O       2.78322793      -0.29475687       0.25636567        8 
O       1.37017279       1.34634738      -0.35834330        8 
O      -1.51964801       1.71612761      -0.56905514        8 
O      -0.94919400       2.06982936       1.58180692        8 
C      -1.56318091       3.13651171      -0.78885381        6 
C       3.88874179       0.51047273      -0.19655179        6 
C       0.27297194      -1.84332151      -0.48338213        6 
C      -0.47739043      -3.03094858       0.15962454        6 
C      -1.92489188      -2.45720662       0.24553890        6 
C      -1.70881336      -1.03292014      -0.30688254        6 
O      -0.71539274      -1.24575153      -1.32496428        8 
H       0.87749543      -1.16736058       1.51735275        1 
H      -1.30207253      -0.42369654       1.76539769        1 
H      -2.23691008       3.61664117      -0.07760081        1 
H       3.90257317       1.46577758       0.32960840        1 
H       1.15528305      -2.10060607      -1.06462148        1 
H      -0.43149401      -3.90420647      -0.49234511        1 
H      -0.06385637      -3.30924912       1.13068357        1 
H      -2.60918488      -3.01054497      -0.39919806        1 
H      -2.33270088      -2.46031009       1.25827186        1 
H      -2.57798834      -0.55048459      -0.74320179        1 
H      -0.56009769       3.55143183      -0.68252741        1 
H      -1.92412381       3.26031111      -1.80748689        1 
H       3.81212998       0.69207103      -1.26977888        1 
H       4.78098292      -0.06798971       0.03196708        1 
