29
Lattice="0.0 0.0 0.0 0.0 0.0 0.0 0.0 0.0 0.0" Properties=species:S:1:pos:R:3:Z:I:1 pbc="F F F"
C       0.56643421      -0.71648525      -0.72190792        6 
C       0.49868534       0.81795943      -0.36954574        6 
C      -0.46420178      -1.65967474      -0.09715623        6 
C      -0.81459413       1.40085865       0.11212721        6 
O      -1.71519822      -1.16851996      -0.13188648        8 
O      -0.19834585      -2.74960615       0.34533918        8 
O      -1.68533509       1.50025340      -0.91289717        8 
O      -1.02376812       1.85171281       1.21139318        8 
C      -2.98777064       2.01044460      -0.58620211        6 
C      -2.74412235      -2.01146706       0.42290628        6 
C       1.95004374      -1.04964327      -0.11149305        6 
C       3.08714649      -0.30205025      -0.84784134        6 
C       2.97864091       1.12336164      -0.22347799        6 
C       1.69448490       0.96184089       0.61106234        6 
O       1.85565701      -0.36023259       1.14736266        8 
H       0.51794859      -0.86871749      -1.80327686        1 
H       0.70498748       1.36493793      -1.29354795        1 
H      -3.47576637       1.35930932       0.14144620        1 
H      -2.56451027      -2.17763651       1.48570350        1 
H       2.10607810      -2.10945565       0.06112440        1 
H       4.05025564      -0.76414583      -0.62964139        1 
H       2.95183412      -0.30721181      -1.93211713        1 
H       3.82480367       1.33266683       0.43267563        1 
H       2.91400036       1.92199328      -0.96536784        1 
H       1.53140183       1.67235224       1.41602772        1 
H      -2.91592958       3.01789806      -0.17355122        1 
H      -3.54142219       2.01720814      -1.52258477        1 
H      -2.76946052      -2.97114120      -0.09458250        1 
H      -3.67420894      -1.46826072       0.27095692        1 
