29
Lattice="0.0 0.0 0.0 0.0 0.0 0.0 0.0 0.0 0.0" Properties=species:S:1:pos:R:3:Z:I:1 pbc="F F F"
C       0.60370552      -0.67171748      -0.74863653        6 
C       0.46749802       0.85134036      -0.37849039        6 
C      -0.41260522      -1.67658988      -0.20851910        6 
C      -0.87456118       1.36542756       0.10442071        6 
O      -1.62672595      -1.15366172       0.01874309        8 
O      -0.15111536      -2.84147559      -0.02977983        8 
O      -1.72173875       1.50685167      -0.93742752        8 
O      -1.13458851       1.71230303       1.22924205        8 
C      -3.04724535       1.95572195      -0.61223245        6 
C      -2.62012932      -2.05293820       0.54934684        6 
C       1.97069080      -0.97564051      -0.08042934        6 
C       3.11523347      -0.19218347      -0.76455953        6 
C       2.93551457       1.22657627      -0.14213430        6 
C       1.62666526       1.02193405       0.64239963        6 
O       1.80528084      -0.30039443       1.17715741        8 
H       0.62389403      -0.81060906      -1.83268756        1 
H       0.67196366       1.42593649      -1.28536196        1 
H      -3.53317632       1.24343458       0.05692041        1 
H      -2.29787999      -2.44074687       1.51610939        1 
H       2.14653596      -2.03385466       0.08463600        1 
H       4.08156675      -0.62594461      -0.50577252        1 
H       3.02607133      -0.19788220      -1.85334530        1 
H       3.74913910       1.46362811       0.54489037        1 
H       2.87068991       2.02395193      -0.88541522        1 
H       1.41508613       1.71977333       1.44702958        1 
H      -3.01540916       2.93432347      -0.13079033        1 
H      -3.57773284       2.01114648      -1.56034457        1 
H      -2.78707714      -2.88281820      -0.13830390        1 
H      -3.52182304      -1.45476521       0.65812250        1 
