29
Lattice="0.0 0.0 0.0 0.0 0.0 0.0 0.0 0.0 0.0" Properties=species:S:1:pos:R:3:Z:I:1 pbc="F F F"
C      -0.55685315       0.72925995      -0.79921049        6 
C      -0.73720192      -0.82536512      -0.61002641        6 
C       0.86423480       1.26201199      -0.68581296        6 
C       0.47803081      -1.70066713      -0.38136929        6 
O       1.17925446       1.67818803       0.54909787        8 
O       1.59513187       1.39072926      -1.64109081        8 
O       1.36815643      -1.16249050       0.46754426        8 
O       0.60317792      -2.79656967      -0.87550140        8 
C       2.53515309      -1.95393290       0.75750617        6 
C       2.51908365       2.16368930       0.72548931        6 
C      -1.52355620       1.25483022       0.29997102        6 
C      -2.98634336       1.02601655      -0.14477453        6 
C      -3.13977562      -0.50731112       0.09772389        6 
C      -1.72462980      -0.85969718       0.60406494        6 
O      -1.35653329       0.29634626       1.35520671        8 
H      -0.88278705       1.00741456      -1.80139713        1 
H      -1.21462330      -1.25189732      -1.49087063        1 
H       2.24765105      -2.90654088       1.20415821        1 
H       2.69900369       3.03866618       0.09858459        1 
H      -1.29100620       2.24895132       0.67001749        1 
H      -3.66702390       1.59815846       0.48696312        1 
H      -3.15888191       1.31992443      -1.18201340        1 
H      -3.87779912      -0.71475681       0.87380445        1 
H      -3.41933365      -1.06563825      -0.79706646        1 
H      -1.64963390      -1.74973771       1.22518782        1 
H       3.10381012      -2.13885214      -0.15495368        1 
H       3.11590422      -1.36105310       1.46063623        1 
H       3.23809060       1.38454950       0.46630161        1 
H       2.59666026       2.42214940       1.77919655        1 
