29
Lattice="0.0 0.0 0.0 0.0 0.0 0.0 0.0 0.0 0.0" Properties=species:S:1:pos:R:3:Z:I:1 pbc="F F F"
C      -0.53009507       0.39592585      -0.73938616        6 
C      -0.13214096      -1.06091860      -0.32835645        6 
C       0.30676876       1.49416577      -0.08363926        6 
C       1.28968038      -1.31027925       0.13972294        6 
O      -0.36770660       2.66242530      -0.07036977        8 
O       1.44297660       1.39053826       0.30472717        8 
O       2.15561542      -1.06231742      -0.86216169        8 
O       1.60002058      -1.80774600       1.19327761        8 
C       3.54990077      -1.17363132      -0.52830148        6 
C       0.33364297       3.79114098       0.48601322        6 
C      -1.97238092       0.42523596      -0.15949258        6 
C      -2.88437928      -0.61513629      -0.85460358        6 
C      -2.46291954      -1.93295429      -0.13344792        6 
C      -1.25658196      -1.42658719       0.67636466        6 
O      -1.73431198      -0.14778301       1.13731028        8 
H      -0.48987280       0.55171792      -1.81967337        1 
H      -0.22099916      -1.68604762      -1.22227032        1 
H       3.80562988      -0.42937890       0.22739860        1 
H       1.23141278       4.00614346      -0.09566354        1 
H      -2.39130858       1.42029851      -0.05433254        1 
H      -3.93472561      -0.37872771      -0.68100541        1 
H      -2.72321836      -0.64750067      -1.93472325        1 
H      -3.24706200      -2.28352972       0.53940399        1 
H      -2.20995448      -2.74300277      -0.82029424        1 
H      -0.92994320      -2.02782617       1.51945270        1 
H       3.77814407      -2.17212988      -0.15287643        1 
H       4.08742174      -0.97832723      -1.45373726        1 
H       0.61321320       3.58959573       1.52062318        1 
H      -0.36739527       4.62094249       0.43161759        1 
