29
Lattice="0.0 0.0 0.0 0.0 0.0 0.0 0.0 0.0 0.0" Properties=species:S:1:pos:R:3:Z:I:1 pbc="F F F"
C       0.80794637      -0.68348822      -0.79717836        6 
C       0.33881917       0.78623584      -0.57847120        6 
C      -0.07220331      -1.81824557      -0.28737592        6 
C      -1.15398900       1.03502189      -0.65205089        6 
O      -1.15845776      -1.41178199       0.38221560        8 
O       0.25317550      -2.97787313      -0.39141162        8 
O      -1.58621886       1.86634928       0.31656705        8 
O      -1.86595699       0.58602582      -1.51593832        8 
C      -2.99219324       2.17797990       0.29539212        6 
C      -1.97462737      -2.44388906       0.96428540        6 
C       2.05274417      -0.67448305       0.14349557        6 
C       3.11962400       0.33940769      -0.33761543        6 
C       2.53483415       1.68463663       0.19541899        6 
C       1.15434549       1.20674821       0.68210638        6 
O       1.49250831      -0.04413140       1.30778313        8 
H       1.06016907      -0.90358993      -1.83394412        1 
H       0.70857017       1.36404159      -1.43349633        1 
H      -3.25515538       2.69540028      -0.62848766        1 
H      -1.39914516      -3.01382190       1.69501951        1 
H       2.41988542      -1.66632218       0.39233266        1 
H       4.08801589       0.11543749       0.11057386        1 
H       3.24111100       0.32370542      -1.42299124        1 
H       3.11796634       2.06339488       1.03608160        1 
H       2.47710186       2.46627714      -0.56501986        1 
H       0.62734750       1.84426132       1.38384884        1 
H      -3.58265096       1.26436406       0.37498601        1 
H      -3.15947179       2.82085137       1.15673463        1 
H      -2.34580203      -3.11592543       0.18951888        1 
H      -2.79848315      -1.92237122       1.44630474        1 
