29
Lattice="0.0 0.0 0.0 0.0 0.0 0.0 0.0 0.0 0.0" Properties=species:S:1:pos:R:3:Z:I:1 pbc="F F F"
C      -0.39928399      -0.81705474       0.49190606        6 
C      -0.69100558       0.72359123       0.58810371        6 
C       0.90398110      -1.24737615      -0.16002466        6 
C       0.36545541       1.75246304       0.22070425        6 
O       1.74687753      -1.75638699       0.76901916        8 
O       1.15969093      -1.20239607      -1.33545719        8 
O       1.60787945       1.25325733       0.16167858        8 
O       0.11217127       2.92818340       0.10546788        8 
C       2.65945993       2.18226467      -0.16328491        6 
C       3.02820516      -2.18533784       0.27869811        6 
C      -1.60819676      -1.25780361      -0.39489505        6 
C      -2.90448981      -1.23296696       0.44498155        6 
C      -3.18313105       0.29983601       0.51977426        6 
C      -1.97960652       0.85372285      -0.27158527        6 
O      -1.77744304      -0.14297616      -1.27916048        8 
H      -0.43780058      -1.26689731       1.48290399        1 
H      -0.92019287       0.96926766       1.62973853        1 
H       2.47728219       2.62666983      -1.14216251        1 
H       3.56744431      -1.34198962      -0.15616265        1 
H      -1.43396987      -2.15968981      -0.97634987        1 
H      -3.70312598      -1.75757337      -0.08115538        1 
H      -2.77981440      -1.69906177       1.42454429        1 
H      -4.11457948       0.55883230       0.01495480        1 
H      -3.23119231       0.68453382       1.54026361        1 
H      -2.11027772       1.83186218      -0.72555785        1 
H       2.71761344       2.96914953       0.58970937        1 
H       3.57187765       1.59068158      -0.17595339        1 
H       2.91012712      -2.96167323      -0.47881978        1 
H       3.55802433      -2.57272032       1.14632024        1 
