29
Lattice="0.0 0.0 0.0 0.0 0.0 0.0 0.0 0.0 0.0" Properties=species:S:1:pos:R:3:Z:I:1 pbc="F F F"
C       0.20870871       0.96138273       0.43783147        6 
C       0.72896571      -0.46979413       0.84355519        6 
C      -1.19838776       0.99996920      -0.11799149        6 
C      -0.31554957      -1.56179516       0.66575920        6 
O      -1.90495959       2.00186313       0.44800220        8 
O      -1.64114399       0.27358997      -0.97281606        8 
O      -0.07786830      -2.35174747      -0.38695726        8 
O      -1.24021822      -1.70824909       1.43100741        8 
C      -1.09752296      -3.31985784      -0.69702239        6 
C      -3.26721873       2.14205715      -0.00139422        6 
C       1.26511300       1.34714556      -0.65054379        6 
C       2.58007209       1.74271892       0.05426871        6 
C       3.09773560       0.34303068       0.50883380        6 
C       1.98984018      -0.58146596      -0.04674698        6 
O       1.58862952       0.09243019      -1.24926733        8 
H       0.25262671       1.64290983       1.28518296        1 
H       0.97341633      -0.47471713       1.90697426        1 
H      -1.23765800      -4.01136056       0.13513495        1 
H      -3.82500061       1.22598429       0.19767428        1 
H       0.90361553       2.03622089      -1.41112144        1 
H       3.26282536       2.20639239      -0.65929218        1 
H       2.42558667       2.44094702       0.87879816        1 
H       4.05538817       0.10578456       0.04414611        1 
H       3.21407614       0.25619916       1.59107987        1 
H       2.29156686      -1.59750472      -0.28205370        1 
H      -2.03568206      -2.80676250      -0.91126099        1 
H      -0.73720280      -3.84390522      -1.57921819        1 
H      -3.29699362       2.35767827      -1.07052255        1 
H      -3.67555164       2.97255928       0.56996062        1 
