29
Lattice="0.0 0.0 0.0 0.0 0.0 0.0 0.0 0.0 0.0" Properties=species:S:1:pos:R:3:Z:I:1 pbc="F F F"
C      -0.75197195       0.45198216      -0.85611388        6 
C      -0.12249986      -0.91623133      -0.40294026        6 
C       0.09978869       1.69977051      -0.66519518        6 
C       1.32807499      -0.90376916       0.03416229        6 
O       0.10855681       2.14308492       0.59427709        8 
O       0.62103047       2.28080317      -1.59086409        8 
O       1.96286453      -1.98798847      -0.47347900        8 
O       1.86792778      -0.10382727       0.75521471        8 
C       3.34739317      -2.13740520      -0.10544559        6 
C       0.95449823       3.27257525       0.86544798        6 
C      -2.03716157       0.45329026       0.02259249        6 
C      -3.02362403      -0.61971761      -0.49741215        6 
C      -2.38185871      -1.92329790       0.07059414        6 
C      -1.11274583      -1.34794267       0.73324117        6 
O      -1.57553837      -0.10618971       1.25956338        8 
H      -0.98082588       0.41932104      -1.92026992        1 
H      -0.18330149      -1.62573730      -1.22714808        1 
H       3.92740439      -1.28347332      -0.45830161        1 
H       0.67023349       4.12636847       0.24836652        1 
H      -2.46174530       1.43715409       0.20374120        1 
H      -4.01894283      -0.45313869      -0.08395870        1 
H      -3.10489784      -0.61945537      -1.58617099        1 
H      -3.02015350      -2.38107847       0.82789251        1 
H      -2.16589152      -2.67321969      -0.69219562        1 
H      -0.67060837      -1.94735791       1.52600468        1 
H       3.44836576      -2.21761087       0.97796568        1 
H       3.67834636      -3.05244798      -0.59143464        1 
H       1.99486138       3.00911685       0.66955492        1 
H       0.81070158       3.49202483       1.92080641        1 
