29
Lattice="0.0 0.0 0.0 0.0 0.0 0.0 0.0 0.0 0.0" Properties=species:S:1:pos:R:3:Z:I:1 pbc="F F F"
C      -0.14527798       0.98460435       0.49997051        6 
C       0.81604274      -0.23644894       0.70030391        6 
C      -1.46587180       0.64842223      -0.16558240        6 
C       0.14451028      -1.58899361       0.53807796        6 
O      -2.48937349       1.24417008       0.48430787        8 
O      -1.60294897      -0.01133400      -1.16419548        8 
O       0.88438736      -2.45373181      -0.17490656        8 
O      -0.91836298      -1.86678334       1.03844159        8 
C       0.30081038      -3.75374968      -0.39282494        6 
C      -3.80163223       0.99208073      -0.05295286        6 
C       0.72411275       1.84925463      -0.46687811        6 
C       1.91869640       2.45064890       0.30840935        6 
C       2.85527592       1.20805104       0.42589417        6 
C       1.98660855       0.12385141      -0.24987119        6 
O       1.34023862       0.86103740      -1.29803373        8 
H      -0.35070153       1.50126800       1.43535889        1 
H       1.16259688      -0.23694049       1.73869088        1 
H       0.13981732      -4.26452546       0.55760926        1 
H      -4.01015289      -0.07858657      -0.04648165        1 
H       0.15973699       2.54723895      -1.08184789        1 
H       2.38354257       3.24788552      -0.27317989        1 
H       1.62453188       2.86481460       1.27488656        1 
H       3.77929674       1.35422603      -0.13529856        1 
H       3.11801538       0.96039467       1.45642947        1 
H       2.51483441      -0.72643011      -0.66823730        1 
H      -0.65030785      -3.65146749      -0.91636871        1 
H       1.02071062      -4.29360559      -1.00371126        1 
H      -3.87650304       1.36792716      -1.07470023        1 
H      -4.48955917       1.52175804       0.60236901        1 
