29
Lattice="0.0 0.0 0.0 0.0 0.0 0.0 0.0 0.0 0.0" Properties=species:S:1:pos:R:3:Z:I:1 pbc="F F F"
C      -0.82777022      -0.21983867      -0.69524801        6 
C       0.62885875      -0.79883570      -0.66330812        6 
C      -0.98855595       1.20645517      -0.18744161        6 
C       1.74809963       0.22862210      -0.59959461        6 
O      -2.30135200       1.50197595      -0.06333316        8 
O      -0.11145405       1.99900650       0.04122325        8 
O       2.26276625       0.36293051       0.63270337        8 
O       2.15089826       0.81904256      -1.57241117        8 
C       3.22569423       1.41995313       0.79324679        6 
C      -2.60985356       2.83618663       0.38451966        6 
C      -1.53067405      -1.21199470       0.27602374        6 
C      -1.57016870      -2.63700071      -0.32347229        6 
C      -0.10969013      -3.11981703      -0.06548787        6 
C       0.51729857      -1.82952750       0.49776194        6 
O      -0.54849958      -1.31492951       1.31643434        8 
H      -1.25677206      -0.25171643      -1.69896608        1 
H       0.80479627      -1.31562226      -1.60858777        1 
H       4.08465506       1.26081947       0.13966514        1 
H      -2.22336323       3.57278159      -0.32132232        1 
H      -2.46899100      -0.84706293       0.68262514        1 
H      -2.29579256      -3.25160315       0.21066382        1 
H      -1.84457722      -2.63682404      -1.38073529        1 
H      -0.08109967      -3.91019323       0.68626284        1 
H       0.39434497      -3.48130094      -0.96376696        1 
H       1.41477864      -1.94514622       1.09697254        1 
H       2.75747494       2.37636182       0.55726083        1 
H       3.52430517       1.38379897       1.83863679        1 
H      -2.17418806       3.01553899       1.36819560        1 
H      -3.69560257       2.88134240       0.43094969        1 
