29
Lattice="0.0 0.0 0.0 0.0 0.0 0.0 0.0 0.0 0.0" Properties=species:S:1:pos:R:3:Z:I:1 pbc="F F F"
C      -0.78790025      -0.38634650      -0.66907515        6 
C       0.76046951      -0.61438828      -0.68619808        6 
C      -1.25178945       0.94301423      -0.09845464        6 
C       1.59699401       0.65381346      -0.63190500        6 
O      -2.59774230       1.02857610      -0.19415009        8 
O      -0.56534330       1.80873305       0.37962224        8 
O       2.28069354       0.78396959       0.51529556        8 
O       1.66988225       1.42621258      -1.55721409        8 
C       3.00208349       2.01912820       0.67533556        6 
C      -3.19513185       2.22875241       0.33284504        6 
C      -1.21127716      -1.52238672       0.31310473        6 
C      -0.95537543      -2.91150840      -0.31654418        6 
C       0.58584609      -3.05360411      -0.12535790        6 
C       0.93008111      -1.66511402       0.44771084        6 
O      -0.19261478      -1.41614112       1.31432201        8 
H      -1.23935473      -0.50782886      -1.65402791        1 
H       1.02136206      -1.05726680      -1.65022157        1 
H       3.74151254       2.13764614      -0.11792626        1 
H      -2.79915150       3.10686254      -0.17902484        1 
H      -2.19247398      -1.38230220       0.75906974        1 
H      -1.49966475      -3.68149055       0.23169062        1 
H      -1.26835735      -2.95856936      -1.36196757        1 
H       0.82258250      -3.82868909       0.60482470        1 
H       1.11946897      -3.27859027      -1.05078011        1 
H       1.85313335      -1.58636517       1.01258903        1 
H       2.30312944       2.85612867       0.65231204        1 
H       3.48588058       1.94767835       1.64696443        1 
H      -2.99618009       2.31391159       1.40228362        1 
H      -4.26219177       2.12552589       0.14862948        1 
