29
Lattice="0.0 0.0 0.0 0.0 0.0 0.0 0.0 0.0 0.0" Properties=species:S:1:pos:R:3:Z:I:1 pbc="F F F"
C      -0.87210811      -0.19602897      -0.86145706        6 
C       0.56776042      -0.56192909      -0.39260805        6 
C      -1.54087986       1.13507983      -0.54265887        6 
C       1.65666048       0.48069550      -0.21276245        6 
O      -1.09174903       1.72696905       0.55967911        8 
O      -2.50502755       1.51614422      -1.17182687        8 
O       2.85451666      -0.14518277      -0.39326304        8 
O       1.57554972       1.64246327       0.08254205        8 
C       4.02433188       0.66634774      -0.18462409        6 
C      -1.76350604       2.93270495       0.96059242        6 
C      -1.65800669      -1.26494091      -0.02290176        6 
C      -1.26930084      -2.70627298      -0.44218379        6 
C       0.07258708      -2.90620022       0.33130167        6 
C       0.28724317      -1.47618121       0.85914622        6 
O      -1.03704372      -1.11483359       1.25994264        8 
H      -0.99644961      -0.35081584      -1.93268844        1 
H       0.97866858      -1.21173749      -1.16731532        1 
H       4.03017376       1.51174301      -0.87425558        1 
H      -2.81109846       2.72752259       1.18779264        1 
H      -2.72536766      -1.07179998       0.05149691        1 
H      -2.03045602      -3.41568206      -0.11565944        1 
H      -1.16056781      -2.80511587      -1.52421550        1 
H      -0.05149884      -3.59809374       1.16597888        1 
H       0.89206362      -3.26037125      -0.29633457        1 
H       0.97574051      -1.35654805       1.69179363        1 
H       4.05285690       1.04157917       0.83984893        1 
H       4.87055146       0.01000592      -0.37581520        1 
H      -1.70521677       3.68078370       0.16872324        1 
H      -1.23473933       3.27228144       1.84784188        1 
