29
Lattice="0.0 0.0 0.0 0.0 0.0 0.0 0.0 0.0 0.0" Properties=species:S:1:pos:R:3:Z:I:1 pbc="F F F"
C       0.46998387      -0.63358613      -0.49817251        6 
C       0.43937825       0.93275088      -0.57050923        6 
C      -0.76770726      -1.34578145       0.00338510        6 
C      -0.75855263       1.61507555       0.07697134        6 
O      -0.78757421      -2.60636753      -0.49780448        8 
O      -1.59938862      -0.93000924       0.76726153        8 
O      -1.72038317       1.82725145      -0.85397207        8 
O      -0.87834788       1.89821711       1.23762610        8 
C      -2.97235662       2.32889263      -0.34978709        6 
C      -1.85983645      -3.44951349      -0.03586393        6 
C       1.71874117      -0.87558430       0.41336482        6 
C       2.99169135      -0.67153609      -0.43613386        6 
C       2.97918069       0.87928748      -0.60421805        6 
C       1.73364497       1.26198154       0.22811522        6 
O       1.72140158       0.26680943       1.26323896        8 
H       0.66519716      -1.03994558      -1.49107324        1 
H       0.49417230       1.25923662      -1.60876056        1 
H      -3.39005843       1.62594712       0.37246208        1 
H      -2.82581564      -3.01427292      -0.29579766        1 
H       1.68005443      -1.78652907       1.00650088        1 
H       3.86780658      -1.00238104       0.12351140        1 
H       2.96523405      -1.21642123      -1.38129226        1 
H       3.87504416       1.33352467      -0.17909047        1 
H       2.89985958       1.19825685      -1.64572072        1 
H       1.74191393       2.25024013       0.67940682        1 
H      -2.83271194       3.29942590       0.12879443        1 
H      -3.62014392       2.42114101      -1.21916269        1 
H      -1.80470370      -3.57793009       1.04639016        1 
H      -1.71907079      -4.40155018      -0.54280633        1 
