29
Lattice="0.0 0.0 0.0 0.0 0.0 0.0 0.0 0.0 0.0" Properties=species:S:1:pos:R:3:Z:I:1 pbc="F F F"
C      -0.45425066      -0.75386395       0.43857374        6 
C      -0.55947274       0.81302535       0.59490489        6 
C       0.83455250      -1.27343087      -0.16256969        6 
C       0.54381726       1.60153598      -0.09301756        6 
O       1.47850392      -2.07116144       0.72455578        8 
O       1.24806615      -1.04902483      -1.27072258        8 
O       1.56189036       1.81948241       0.77840646        8 
O       0.57526045       1.93719425      -1.24511270        8 
C       2.72919500       2.45456983       0.22262742        6 
C       2.71808285      -2.64242002       0.26675645        6 
C      -1.71254565      -1.04861462      -0.43965546        6 
C      -2.95478587      -1.03540378       0.47577043        6 
C      -3.06792496       0.49048580       0.78071427        6 
C      -1.92777602       1.05852913      -0.09777285        6 
O      -1.88048559       0.14574160      -1.20089845        8 
H      -0.55709519      -1.21580113       1.41924663        1 
H      -0.56385269       1.08178088       1.65094411        1 
H       3.12870460       1.85684497      -0.59801695        1 
H       3.43846303      -1.85476203       0.04032085        1 
H      -1.61151201      -1.90053587      -1.10798649        1 
H      -3.82420498      -1.39314098      -0.07759291        1 
H      -2.84105424      -1.65168341       1.36978606        1 
H      -4.03108950       0.89165543       0.46300059        1 
H      -2.93681326       0.72836658       1.83875690        1 
H      -2.06792103       2.06995941      -0.47007938        1 
H       2.48267319       3.45102645      -0.14719890        1 
H       3.44356300       2.51634073       1.04084870        1 
H       2.55389658      -3.24533076      -0.62772540        1 
H       3.07294559      -3.26141900       1.08780237        1 
