29
Lattice="0.0 0.0 0.0 0.0 0.0 0.0 0.0 0.0 0.0" Properties=species:S:1:pos:R:3:Z:I:1 pbc="F F F"
C      -0.33757088       0.80614475       0.50369306        6 
C       0.94692281      -0.02873930       0.83211784        6 
C      -1.60765998       0.05638607       0.16125638        6 
C       0.87817466      -1.53698572       0.62794858        6 
O      -2.66865856       0.87835149       0.34992665        8 
O      -1.71594121      -1.06645308      -0.26047393        8 
O       0.94782635      -1.89300386      -0.65931617        8 
O       0.88929824      -2.32198723       1.54866003        8 
C       0.79816551      -3.29398889      -0.93930970        6 
C      -3.95601441       0.33861289      -0.00626837        6 
C       0.16969329       1.72027374      -0.66123466        6 
C       1.01641894       2.85885551      -0.05620652        6 
C       2.29456104       2.07180048       0.36868505        6 
C       1.95719281       0.65112433      -0.14318375        6 
O       1.15153573       0.90998128      -1.30325229        8 
H      -0.59172947       1.43208235       1.36005904        1 
H       1.22777050       0.10839786       1.87507965        1 
H       1.54996596      -3.87920359      -0.40756417        1 
H      -4.17553910      -0.54755307       0.59093371        1 
H      -0.59634622       2.01953947      -1.37310685        1 
H       1.24458636       3.59805777      -0.82544640        1 
H       0.52041463       3.36832916       0.77203934        1 
H       3.18465801       2.45637192      -0.13068346        1 
H       2.47442743       2.09375837       1.44525438        1 
H       2.80680534       0.03313109      -0.42099263        1 
H      -0.19970796      -3.62138028      -0.64292329        1 
H       0.92505147      -3.38759570      -2.01559692        1 
H      -3.97900854       0.07347201      -1.06446081        1 
H      -4.67049231       1.13069011       0.20637847        1 
