29
Lattice="0.0 0.0 0.0 0.0 0.0 0.0 0.0 0.0 0.0" Properties=species:S:1:pos:R:3:Z:I:1 pbc="F F F"
C       0.24410784       1.05580207       0.37675270        6 
C       0.59349677      -0.43409946       0.75859872        6 
C      -1.12750275       1.25752355      -0.23773273        6 
C      -0.47800009      -1.44930842       0.38050648        6 
O      -2.00329329       1.69784970       0.68609042        8 
O      -1.39952002       1.08995998      -1.40043830        8 
O       0.04025931      -2.57282029      -0.14358744        8 
O      -1.65789549      -1.29600566       0.58534351        8 
C      -0.90660895      -3.59549064      -0.51195762        6 
C      -3.37451113       1.78208623       0.25683810        6 
C       1.39604476       1.37277692      -0.61864056        6 
C       2.67432350       1.68002606       0.18493821        6 
C       3.03416634       0.25620985       0.70971321        6 
C       1.94557066      -0.60381622       0.02342651        6 
O       1.69796647       0.09684896      -1.20239340        8 
H       0.29933952       1.68305829       1.26600379        1 
H       0.70216177      -0.52459039       1.84317650        1 
H      -1.46380230      -3.93131239       0.36369289        1 
H      -3.73639937       0.78788687      -0.00934363        1 
H       1.13164185       2.07750076      -1.40241893        1 
H       3.45002117       2.06665763      -0.47771759        1 
H       2.51116718       2.40902878       0.98085194        1 
H       4.02650210      -0.05447094       0.38032008        1 
H       3.00212653       0.17854395       1.79891931        1 
H       2.21828797      -1.63222537      -0.18781107        1 
H      -1.60196888      -3.21191400      -1.25926377        1 
H      -0.30863833      -4.40561053      -0.92298749        1 
H      -3.46939217       2.44903073      -0.60123427        1 
H      -3.92286128       2.17341230       1.11100331        1 
