29
Lattice="0.0 0.0 0.0 0.0 0.0 0.0 0.0 0.0 0.0" Properties=species:S:1:pos:R:3:Z:I:1 pbc="F F F"
C      -0.32429763       0.72072251       0.45060301        6 
C       0.95855421      -0.05555517       0.84489635        6 
C      -1.65319223      -0.00236123       0.40816347        6 
C       1.12408722      -1.51624431       0.45103930        6 
O      -2.62694032       0.89395520       0.10605219        8 
O      -1.87236917      -1.16904297       0.60346299        8 
O       0.44826492      -1.85966938      -0.64772828        8 
O       1.91493124      -2.24211194       1.01154454        8 
C       0.60677984      -3.21443504      -1.09978647        6 
C      -3.96585889       0.37044512       0.02768907        6 
C       0.14127966       1.53880565      -0.80586765        6 
C       0.79300098       2.83182630      -0.28146136        6 
C       2.04805812       2.23187489       0.42964411        6 
C       1.98256612       0.75003938      -0.02467398        6 
O       1.28663380       0.81903259      -1.27773010        8 
H      -0.49336754       1.45477750       1.24606487        1 
H       1.17905906       0.00944056       1.90906101        1 
H       1.65294087      -3.42274208      -1.32928595        1 
H      -4.26104288      -0.06789607       0.98216665        1 
H      -0.59549026       1.64154212      -1.59709731        1 
H       1.08056297       3.47022838      -1.11820128        1 
H       0.14316951       3.40241455       0.38464201        1 
H       2.97033913       2.69880157       0.08296734        1 
H       2.01107361       2.32879449       1.51678538        1 
H       2.94141447       0.25444793      -0.15653496        1 
H       0.25675984      -3.90950493      -0.33507567        1 
H      -0.00638321      -3.29238335      -1.99471783        1 
H      -4.03333140      -0.38968306      -0.75221034        1 
H      -4.59691220       1.22309293      -0.21351130        1 
