29
Lattice="0.0 0.0 0.0 0.0 0.0 0.0 0.0 0.0 0.0" Properties=species:S:1:pos:R:3:Z:I:1 pbc="F F F"
C       0.00202202      -0.82084653       0.51300439        6 
C      -0.90740272       0.40351608       0.81699008        6 
C       1.50019009      -0.60056502       0.47880458        6 
C      -0.44230828       1.80009536       0.43184616        6 
O       2.11484554      -1.70075018      -0.01433265        8 
O       2.09316772       0.37616408       0.85878133        8 
O       0.31652618       1.82432724      -0.66940631        8 
O      -0.85120965       2.79241142       0.99068186        8 
C       0.74157449       3.11957461      -1.12362462        6 
C       3.55346811      -1.65266827      -0.06295337        6 
C      -0.70503115      -1.47311738      -0.72031576        6 
C      -1.85759256      -2.34717103      -0.18673286        6 
C      -2.81714858      -1.24222216       0.35725727        6 
C      -2.10479209       0.04639503      -0.12581277        6 
O      -1.42227201      -0.38219320      -1.31130358        8 
H      -0.10562034      -1.51653485       1.35394121        1 
H      -1.20858257       0.45351777       1.86151153        1 
H      -0.12021269       3.75509231      -1.33289372        1 
H       3.96412826      -1.50891312       0.93744255        1 
H      -0.04162335      -1.92872499      -1.44889080        1 
H      -2.31785387      -2.89960152      -1.00731690        1 
H      -1.53804468      -3.06121922       0.57486759        1 
H      -3.80969706      -1.31836466      -0.08816549        1 
H      -2.93363528      -1.26894248       1.44283564        1 
H      -2.75873360       0.88497918      -0.35407833        1 
H       1.36918454       3.59536422      -0.36855740        1 
H       1.31085251       2.93362499      -2.03166531        1 
H       3.88433601      -0.83740351      -0.70795980        1 
H       3.86143376      -2.61288820      -0.47073373        1 
