29
Lattice="0.0 0.0 0.0 0.0 0.0 0.0 0.0 0.0 0.0" Properties=species:S:1:pos:R:3:Z:I:1 pbc="F F F"
C      -0.79460473      -0.23638104      -0.48809831        6 
C       0.72923890      -0.52494515      -0.58612719        6 
C      -1.23012728       1.20320298      -0.31195769        6 
C       1.65714191       0.43906206       0.13695237        6 
O      -2.56971056       1.24933761      -0.11988254        8 
O      -0.53155366       2.18179854      -0.35625389        8 
O       2.78841991       0.60977822      -0.59201504        8 
O       1.47661212       0.94365806       1.21203637        8 
C       3.77867974       1.47549899      -0.00838268        6 
C      -3.14000386       2.56207825       0.04134025        6 
C      -1.27609883      -1.30984121       0.54432544        6 
C      -1.47720065      -2.63456110      -0.21779849        6 
C       0.00328694      -2.97952296      -0.57435304        6 
C       0.76722988      -1.87710205       0.20257309        6 
O      -0.09798245      -1.59185618       1.30640282        8 
H      -1.23564861      -0.49693097      -1.45723025        1 
H       1.06568817      -0.63753159      -1.61478150        1 
H       3.36073056       2.46983511       0.15472028        1 
H      -2.97315362       3.16275609      -0.85435864        1 
H      -2.08298417      -0.99445748       1.19874312        1 
H      -1.90613178      -3.38448213       0.44870875        1 
H      -2.12561906      -2.53825764      -1.09058252        1 
H       0.28438700      -3.96859389      -0.21074174        1 
H       0.20695876      -2.94491425      -1.64680381        1 
H       1.75238359      -2.15844040       0.56850438        1 
H       4.12702365       1.07202710       0.94404271        1 
H       4.59281391       1.51311109      -0.72913039        1 
H      -2.69599946       3.06617308       0.90075099        1 
H      -4.20368479       2.39792695       0.19945506        1 
