29
Lattice="0.0 0.0 0.0 0.0 0.0 0.0 0.0 0.0 0.0" Properties=species:S:1:pos:R:3:Z:I:1 pbc="F F F"
C       0.78413683      -0.70356361      -0.71586732        6 
C       0.32433743       0.79533601      -0.65530091        6 
C      -0.26857019      -1.77542143      -0.48648743        6 
C      -1.15959497       1.03325253      -0.42804654        6 
O      -0.73509723      -1.77093498       0.77347773        8 
O      -0.58433321      -2.58879837      -1.32086352        8 
O      -1.37975634       2.26273210       0.08144256        8 
O      -2.04610787       0.26847134      -0.71479527        8 
C      -2.76019350       2.62316481       0.28680288        6 
C      -1.79460666      -2.70127523       1.05390690        6 
C       1.88302300      -0.69719472       0.39329637        6 
C       3.14957709      -0.00425041      -0.15212574        6 
C       2.69948839       1.48858896      -0.13416151        6 
C       1.26958154       1.36210030       0.43850733        6 
O       1.38506278       0.25641196       1.34221024        8 
H       1.20874132      -0.93057545      -1.69247957        1 
H       0.52739599       1.27814764      -1.61687172        1 
H      -3.30642262       2.59364592      -0.65700546        1 
H      -1.47068187      -3.72489006       0.85963582        1 
H       2.03734084      -1.65526662       0.88332449        1 
H       3.99175252      -0.17359999       0.52006020        1 
H       3.42955892      -0.36090244      -1.14510168        1 
H       3.32126206       2.08335769       0.53642745        1 
H       2.71867766       1.95930823      -1.11915254        1 
H       0.88582203       2.23310778       0.95975234        1 
H      -3.22800695       1.93802306       0.99495642        1 
H      -2.73805352       3.63377789       0.68801775        1 
H      -2.66212244      -2.46969906       0.43397266        1 
H      -2.02749039      -2.56529641       2.10784585        1 
