29
Lattice="0.0 0.0 0.0 0.0 0.0 0.0 0.0 0.0 0.0" Properties=species:S:1:pos:R:3:Z:I:1 pbc="F F F"
C      -0.48610336       0.39611718      -0.74945313        6 
C      -0.01124778      -1.00101080      -0.26173243        6 
C       0.13248529       1.58578852      -0.00531347        6 
C       1.43523072      -1.31368470       0.06088421        6 
O      -0.65954363       2.67594688      -0.13840488        8 
O       1.20086423       1.62306980       0.54582393        8 
O       2.28637795      -0.57170042      -0.66294062        8 
O       1.77028768      -2.29004727       0.69121794        8 
C       3.68277836      -0.88500996      -0.52072219        6 
C      -0.17436680       3.88444944       0.47394474        6 
C      -1.96778272       0.28780680      -0.27002982        6 
C      -2.71522772      -0.91295411      -0.90230340        6 
C      -2.22789140      -2.09919132      -0.01291464        6 
C      -1.10864894      -1.39404402       0.77119675        6 
O      -1.73862991      -0.13838601       1.08960549        8 
H      -0.36376396       0.54678840      -1.82305893        1 
H      -0.13772884      -1.66334271      -1.12909439        1 
H       4.00001714      -0.72308473       0.51028867        1 
H       0.79042546       4.16742562       0.05012103        1 
H      -2.50824663       1.22782697      -0.27411425        1 
H      -3.79400455      -0.77099057      -0.83210490        1 
H      -2.46547679      -1.04052078      -1.95845611        1 
H      -3.01276343      -2.43413551       0.66724237        1 
H      -1.87272200      -2.95868832      -0.58450344        1 
H      -0.74427859      -1.87957507       1.67152138        1 
H       3.87619857      -1.92177957      -0.80109176        1 
H       4.20083773      -0.20039982      -1.18837080        1 
H      -0.06764842       3.74684214       1.55085498        1 
H      -0.92579133       4.64052157       0.25681977        1 
