29
Lattice="0.0 0.0 0.0 0.0 0.0 0.0 0.0 0.0 0.0" Properties=species:S:1:pos:R:3:Z:I:1 pbc="F F F"
C      -0.43693646       0.76073456       0.55899941        6 
C       0.96817742       0.10449991       0.79476507        6 
C      -1.58192292      -0.15321654       0.17534185        6 
C       1.05394847      -1.40646922       0.62370075        6 
O      -2.74545519       0.53322111       0.26253317        8 
O      -1.52036758      -1.30180624      -0.18131539        8 
O       1.24864671      -1.77405410      -0.64974486        8 
O       1.05453779      -2.17322146       1.55830072        8 
C       1.22685049      -3.18716765      -0.91019802        6 
C      -3.93527324      -0.18793760      -0.11143938        6 
C      -0.10466471       1.79234026      -0.56864025        6 
C       0.66202966       2.97997610       0.05118760        6 
C       2.05971391       2.33381124       0.29255534        6 
C       1.82106848       0.90150541      -0.23651306        6 
O       0.90223691       1.11609354      -1.32033746        8 
H      -0.76321412       1.29033704       1.45541934        1 
H       1.29166689       0.29236369       1.81787604        1 
H       1.99355349      -3.70028757      -0.32778804        1 
H      -4.08430090      -1.04363602       0.54887982        1 
H      -0.94508314       2.04959948      -1.20878409        1 
H       0.72102026       3.80196701      -0.66378822        1 
H       0.19203223       3.35603797       0.96182645        1 
H       2.83234038       2.82931563      -0.29673393        1 
H       2.36825623       2.34854298       1.33957996        1 
H       2.69821975       0.37507269      -0.60118009        1 
H       0.24390727      -3.58851548      -0.65950288        1 
H       1.42032733      -3.28712028      -1.97606542        1 
H      -3.86149925      -0.53747376      -1.14221665        1 
H      -4.75033602       0.52432985      -0.00445356        1 
