29
Lattice="0.0 0.0 0.0 0.0 0.0 0.0 0.0 0.0 0.0" Properties=species:S:1:pos:R:3:Z:I:1 pbc="F F F"
C       0.65589060       0.81519803       0.37776332        6 
C       0.25559382      -0.65903642       0.64352299        6 
C      -0.38119741       1.88510793       0.10498899        6 
C      -0.95249800      -1.17502999      -0.11765322        6 
O      -1.61417162       1.52794822       0.49859589        8 
O      -0.08690160       3.00930550      -0.22784786        8 
O      -1.39924473      -2.31459286       0.46800476        8 
O      -1.43703680      -0.71056241      -1.11510714        8 
C      -2.49410919      -2.97256350      -0.19490141        6 
C      -2.64161385       2.52689923       0.36695831        6 
C       1.83231862       0.67278026      -0.63741986        6 
C       3.11590174       0.42079584       0.17513932        6 
C       2.79992509      -0.99209833       0.75884320        6 
C       1.50133012      -1.35585358      -0.00562341        6 
O       1.61451500      -0.61857660      -1.22849920        8 
H       1.08189332       1.19001814       1.31628906        1 
H       0.14500776      -0.89390292       1.70083478        1 
H      -3.36247975      -2.31372847      -0.24335244        1 
H      -2.75225847       2.81640478      -0.67867833        1 
H       1.87318498       1.44084765      -1.40422006        1 
H       3.97938307       0.38910961      -0.49073171        1 
H       3.29505559       1.17921966       0.93917895        1 
H       3.59059556      -1.70863338       0.53365970        1 
H       2.65195720      -0.98590897       1.84101923        1 
H       1.36301378      -2.41341049      -0.21917856        1 
H      -2.20905172      -3.26288600      -1.20750952        1 
H      -2.71339340      -3.85116013       0.40814084        1 
H      -2.39908712       3.40758722       0.96372568        1 
H      -3.55154624       2.05331097       0.72854911        1 
