29
Lattice="0.0 0.0 0.0 0.0 0.0 0.0 0.0 0.0 0.0" Properties=species:S:1:pos:R:3:Z:I:1 pbc="F F F"
C       0.02001315       1.05590603       0.51264798        6 
C       0.66481694      -0.37078902       0.57410178        6 
C      -1.35088553       1.15002836      -0.14314310        6 
C      -0.19340098      -1.54732242       0.15261588        6 
O      -2.31868063       1.15276940       0.80046197        8 
O      -1.56407707       1.22703419      -1.32425163        8 
O       0.52645119      -2.68780430       0.26353467        8 
O      -1.33739028      -1.52361841      -0.22202516        8 
C      -0.14781750      -3.90239339      -0.11787052        6 
C      -3.66748430       1.08073544       0.30274027        6 
C       1.08349877       1.79463198      -0.35121691        6 
C       2.35632046       2.04321534       0.48783394        6 
C       2.98994718       0.61776174       0.50421379        6 
C       1.93941446      -0.17374847      -0.30534183        6 
O       1.50319869       0.77812200      -1.27397319        8 
H      -0.05984473       1.47547022       1.51512929        1 
H       0.96453771      -0.59464845       1.60115867        1 
H      -1.00255373      -4.08509042       0.53545970        1 
H      -3.79562244       0.16740497      -0.27994206        1 
H       0.69704313       2.64718614      -0.90281650        1 
H       3.00645929       2.76093463      -0.01421487        1 
H       2.13340844       2.42848302       1.48497891        1 
H       3.94901905       0.60406360      -0.01523082        1 
H       3.14070161       0.21780049       1.50880175        1 
H       2.29397206      -1.07686205      -0.79437714        1 
H      -0.49155411      -3.83797776      -1.15100980        1 
H       0.59308532      -4.69105293      -0.00717522        1 
H      -3.89483329       1.94639227      -0.32145292        1 
H      -4.30305275       1.06788266       1.18576901        1 
