29
Lattice="0.0 0.0 0.0 0.0 0.0 0.0 0.0 0.0 0.0" Properties=species:S:1:pos:R:3:Z:I:1 pbc="F F F"
C      -0.53844317       0.61912033      -0.82562047        6 
C      -0.56588680      -0.88615630      -0.41275738        6 
C       0.67151081       1.48182050      -0.50336888        6 
C       0.69800431      -1.69201081      -0.17552664        6 
O       1.06233965       1.39613727       0.77549172        8 
O       1.14226783       2.26678594      -1.29503550        8 
O       1.83728231      -0.99788151      -0.31234698        8 
O       0.66742956      -2.89115303      -0.02028924        8 
C       3.06081611      -1.75211027      -0.21703212        6 
C       2.17380463       2.22278713       1.15288378        6 
C      -1.75274599       1.12111543       0.02894899        6 
C      -3.07415291       0.51790477      -0.50932618        6 
C      -3.02491803      -0.91949388       0.09727696        6 
C      -1.62355969      -0.90288951       0.73922173        6 
O      -1.55771080       0.42623300       1.26672892        8 
H      -0.71148153       0.74108284      -1.89320731        1 
H      -0.99607231      -1.43717333      -1.25513242        1 
H       3.14787731      -2.20813479       0.76988209        1 
H       1.94267141       3.27711328       0.99294097        1 
H      -1.76663193       2.19439411       0.20566953        1 
H      -3.92844802       1.08191760      -0.13342897        1 
H      -3.12003727       0.52529707      -1.60031381        1 
H      -3.78571749      -1.04874169       0.86842924        1 
H      -3.14808732      -1.71181803      -0.64281474        1 
H      -1.43798373      -1.63424168       1.52108156        1 
H       3.08726801      -2.53246894      -0.97875528        1 
H       3.85658546      -1.02869465      -0.37896678        1 
H       3.05824133       1.95846444       0.57001845        1 
H       2.33717089       2.02202130       2.20941722        1 
