29
Lattice="0.0 0.0 0.0 0.0 0.0 0.0 0.0 0.0 0.0" Properties=species:S:1:pos:R:3:Z:I:1 pbc="F F F"
C       0.64343622      -0.64186133      -0.73167043        6 
C       0.44898373       0.88168003      -0.39322324        6 
C      -0.37336509      -1.68155537      -0.27692264        6 
C      -0.90818379       1.34727552       0.09995477        6 
O      -1.52571385      -1.17135101       0.17417886        8 
O      -0.14623207      -2.86703411      -0.33224739        8 
O      -1.75725950       1.48785154      -0.94219528        8 
O      -1.19195585       1.62734096       1.23654214        8 
C      -3.10112962       1.87309682      -0.60921736        6 
C      -2.50362845      -2.11232439       0.65761459        6 
C       1.98127289      -0.91136716       0.01560108        6 
C       3.14512281      -0.14409221      -0.65361386        6 
C       2.91275066       1.29946797      -0.11171602        6 
C       1.58526945       1.10654297       0.64414016        6 
O       1.76238629      -0.19224135       1.23610696        8 
H       0.74851627      -0.79017332      -1.80881905        1 
H       0.63865533       1.45254587      -1.30486419        1 
H      -3.56351717       1.11493802       0.02524724        1 
H      -2.07886526      -2.72015593       1.45665129        1 
H       2.15948511      -1.96263025       0.22200462        1 
H       4.10431504      -0.54780727      -0.32731924        1 
H       3.10797892      -0.20537823      -1.74338048        1 
H       3.69996923       1.59409075       0.58374707        1 
H       2.85067408       2.05415266      -0.89855209        1 
H       1.34737178       1.83101619       1.41723186        1 
H      -3.10908193       2.83090348      -0.08690350        1 
H      -3.62724079       1.94876838      -1.55840589        1 
H      -2.83912362      -2.75971272      -0.15383296        1 
H      -3.32409957      -1.50529575       1.03312868        1 
