29
Lattice="0.0 0.0 0.0 0.0 0.0 0.0 0.0 0.0 0.0" Properties=species:S:1:pos:R:3:Z:I:1 pbc="F F F"
C      -0.57745209       0.38445823      -0.74532010        6 
C      -0.14323145      -1.07569565      -0.34381342        6 
C       0.34497936       1.49251570      -0.24385276        6 
C       1.25677688      -1.23958921       0.21937159        6 
O      -0.33654982       2.61934817       0.03527626        8 
O       1.54687608       1.41703740      -0.17402555        8 
O       2.14958640      -1.36811729      -0.78081889        8 
O       1.53314014      -1.32799114       1.38936395        8 
C       3.53227707      -1.38837677      -0.38496012        6 
C       0.45272612       3.73969851       0.48118436        6 
C      -1.98289012       0.43014572      -0.09397834        6 
C      -2.94188038      -0.56453447      -0.79179403        6 
C      -2.49775311      -1.91892688      -0.15929616        6 
C      -1.27299243      -1.45903035       0.65192292        6 
O      -1.71564370      -0.19273503       1.17088604        8 
H      -0.61286046       0.49381883      -1.83280414        1 
H      -0.18496898      -1.70311734      -1.23560736        1 
H       3.78305475      -0.45066647       0.11265332        1 
H       1.14979626       4.04896414      -0.29917833        1 
H      -2.37336346       1.43022891       0.06047539        1 
H      -3.97846578      -0.32795099      -0.54911270        1 
H      -2.83954381      -0.54413474      -1.87938473        1 
H      -3.26422243      -2.31269781       0.50989221        1 
H      -2.25913650      -2.68653305      -0.89793757        1 
H      -0.95284289      -2.09654871       1.47088333        1 
H       3.72826167      -2.22559205       0.28668014        1 
H       4.09738127      -1.49610147      -1.30827263        1 
H       1.01035325       3.47336922       1.37958473        1 
H      -0.26369614       4.53014865       0.69252788        1 
