29
Lattice="0.0 0.0 0.0 0.0 0.0 0.0 0.0 0.0 0.0" Properties=species:S:1:pos:R:3:Z:I:1 pbc="F F F"
C      -0.43803592      -0.85911192       0.44188367        6 
C      -0.65830732       0.68104486       0.68222467        6 
C       0.90014068      -1.31977835      -0.10936526        6 
C       0.38356450       1.70824993       0.26045641        6 
O       1.75441412      -1.58897454       0.90329453        8 
O       1.16720548      -1.48766975      -1.27155010        8 
O       1.57374025       1.18943458      -0.06430217        8 
O       0.15150584       2.89424636       0.26471915        8 
C       2.58755684       2.12009529      -0.49002143        6 
C       3.07715098      -1.99395554       0.51378182        6 
C      -1.60423338      -1.16460560      -0.54431459        6 
C      -2.92176698      -1.26483637       0.24911949        6 
C      -3.16253053       0.23332676       0.60633480        6 
C      -1.97518934       0.90834291      -0.11572640        6 
O      -1.76617992       0.07113883      -1.25805437        8 
H      -0.57629291      -1.38118748       1.38981636        1 
H      -0.81327658       0.87376075       1.74691488        1 
H       2.23180259       2.70119282      -1.34097196        1 
H       3.55415626      -1.20781023      -0.07386917        1 
H      -1.39735274      -1.96530663      -1.24847638        1 
H      -3.71606124      -1.65196068      -0.39083892        1 
H      -2.84405863      -1.91274246       1.12439738        1 
H      -4.10658385       0.59525860       0.19702614        1 
H      -3.16505954       0.42866614       1.68059705        1 
H      -2.12669068       1.93932718      -0.42209776        1 
H       2.84988440       2.79323270       0.32726714        1 
H       3.43907569       1.50645971      -0.77441999        1 
H       3.04002809      -2.90984738      -0.07822615        1 
H       3.61790901      -2.15950774       1.44304226        1 
