29
Lattice="0.0 0.0 0.0 0.0 0.0 0.0 0.0 0.0 0.0" Properties=species:S:1:pos:R:3:Z:I:1 pbc="F F F"
C       0.44838900       1.01935358       0.30015380        6 
C       0.57101534      -0.45806880       0.86651023        6 
C      -0.91377411       1.32130962      -0.28721195        6 
C      -0.66203913      -1.30681616       0.58717548        6 
O      -1.72063672       1.84748811       0.65356274        8 
O      -1.25100783       1.11793338      -1.42782273        8 
O      -0.50946546      -2.12826721      -0.45897684        8 
O      -1.66914475      -1.24873146       1.25512629        8 
C      -1.65971989      -2.90832183      -0.83385409        6 
C      -3.10080427       2.02318160       0.28162827        6 
C       1.61236305       1.03822632      -0.72642637        6 
C       2.93618863       1.23295956       0.04121385        6 
C       3.08035183      -0.16270638       0.72438567        6 
C       1.85913855      -0.91296912       0.13943141        6 
O       1.70710682      -0.32375509      -1.15821789        8 
H       0.61690216       1.72725316       1.11163394        1 
H       0.67702833      -0.43318353       1.95121734        1 
H      -1.98816702      -3.53287609      -0.00191356        1 
H      -3.54947820       1.05374395       0.06011957        1 
H       1.44595656       1.68337964      -1.58528338        1 
H       3.75034585       1.41510813      -0.66154192        1 
H       2.90403182       2.06308613       0.74986216        1 
H       4.00671157      -0.65738242       0.43070989        1 
H       3.05593609      -0.11166443       1.81505285        1 
H       1.96786052      -1.98931517       0.04129999        1 
H      -2.47343929      -2.24941966      -1.13972420        1 
H      -1.33080095      -3.51925770      -1.67117518        1 
H      -3.18493278       2.67492473      -0.58895988        1 
H      -3.57878499       2.47280502       1.14884985        1 
