29
Lattice="0.0 0.0 0.0 0.0 0.0 0.0 0.0 0.0 0.0" Properties=species:S:1:pos:R:3:Z:I:1 pbc="F F F"
C      -0.63418926       0.47163230      -0.84075148        6 
C      -0.31728218      -1.00029982      -0.36184158        6 
C       0.52121936       1.43168307      -0.59562139        6 
C       1.06266391      -1.17513168       0.23990865        6 
O       0.24283528       2.38335066       0.30304816        8 
O       1.57497102       1.34609291      -1.18302884        8 
O       1.83571383      -1.94336196      -0.55217031        8 
O       1.42635846      -0.72121124       1.29691200        8 
C       3.19457087      -2.13082344      -0.11267925        6 
C       1.32539448       3.27593131       0.63242058        6 
C      -1.93537432       0.75247334      -0.05031975        6 
C      -3.09460218      -0.08288508      -0.64392056        6 
C      -2.76905015      -1.49984272      -0.07908990        6 
C      -1.45630023      -1.21112016       0.67866555        6 
O      -1.67906046       0.10172879       1.20185526        8 
H      -0.79410579       0.47715074      -1.92078373        1 
H      -0.40508148      -1.69140048      -1.19865336        1 
H       3.71237857      -1.17118868      -0.08503439        1 
H       1.66411804       3.80944103      -0.25671466        1 
H      -2.14578691       1.80390967       0.11866899        1 
H      -4.05286405       0.28430884      -0.27406238        1 
H      -3.12044563      -0.04992773      -1.73532489        1 
H      -3.53813741      -1.83682811       0.61745180        1 
H      -2.65320322      -2.26004043      -0.85392919        1 
H      -1.20831064      -1.89166263       1.48959952        1 
H       3.21644108      -2.58492940       0.87896973        1 
H       3.64817587      -2.79029486      -0.84904680        1 
H       2.15488365       2.70955410       1.05695387        1 
H       0.91569160       3.96613738       1.36599062        1 
