29
Lattice="0.0 0.0 0.0 0.0 0.0 0.0 0.0 0.0 0.0" Properties=species:S:1:pos:R:3:Z:I:1 pbc="F F F"
C      -0.33057574      -0.72833206       0.55189319        6 
C      -0.70623069       0.78511625       0.48602539        6 
C       0.93962673      -1.12529501      -0.17504539        6 
C       0.36563448       1.79093843       0.11244063        6 
O       1.61502094      -2.05414562       0.54267636        8 
O       1.28718460      -0.74690120      -1.26401162        8 
O       1.57192418       1.42516070       0.58600892        8 
O       0.14196101       2.86345751      -0.39229882        8 
C       2.66267743       2.32481891       0.31610615        6 
C       2.80354288      -2.57925224      -0.07615306        6 
C      -1.55407948      -1.32604927      -0.22013335        6 
C      -2.83582732      -1.17806565       0.63510009        6 
C      -3.17675407       0.32821187       0.40892599        6 
C      -1.96103416       0.77406959      -0.42910788        6 
O      -1.74382575      -0.37142786      -1.26692824        8 
H      -0.27544673      -1.09656053       1.57447223        1 
H      -0.99543055       1.10656541       1.49291517        1 
H       2.81916238       2.40745107      -0.76015692        1 
H       3.52285582      -1.77899787      -0.25649783        1 
H      -1.38340455      -2.31286240      -0.64564782        1 
H      -3.62410035      -1.82920439       0.25524691        1 
H      -2.66641509      -1.42964236       1.68412760        1 
H      -4.09165652       0.44164229      -0.17412699        1 
H      -3.28963027       0.89162209       1.33731742        1 
H      -2.08316955       1.66720352      -1.03487777        1 
H       2.45662223       3.31198336       0.73175539        1 
H       3.53109771       1.87815636       0.79517750        1 
H       2.56009636      -3.06121089      -1.02429451        1 
H       3.20384555      -3.30277974       0.63072167        1 
