29
Lattice="0.0 0.0 0.0 0.0 0.0 0.0 0.0 0.0 0.0" Properties=species:S:1:pos:R:3:Z:I:1 pbc="F F F"
C       0.63456031      -0.87305125      -0.78915418        6 
C       0.46987119       0.66917918      -0.58091316        6 
C      -0.39614583      -1.81925066      -0.16026598        6 
C      -0.92358562       1.26378539      -0.63486779        6 
O      -1.62031597      -1.28930822      -0.04733746        8 
O      -0.11677673      -2.92655916       0.23253131        8 
O      -1.17521518       2.07819156       0.41138051        8 
O      -1.70762476       1.06343628      -1.52754555        8 
C      -2.47285674       2.70214594       0.42198427        6 
C      -2.62499962      -2.12085732       0.56267456        6 
C       1.93448492      -1.07207931       0.04008834        6 
C       3.12084413      -0.25079971      -0.51865086        6 
C       2.82596846       1.16833128       0.06083661        6 
C       1.41589210       0.93330901       0.63040722        6 
O       1.56610525      -0.36022792       1.23901787        8 
H       0.73530763      -1.13578374      -1.84399982        1 
H       0.92829351       1.12739179      -1.46562229        1 
H      -2.60960075       3.31699264      -0.46884725        1 
H      -2.33564788      -2.37918585       1.58227360        1 
H       2.14197925      -2.11015578       0.27672682        1 
H       4.06776269      -0.64837439      -0.15229796        1 
H       3.15303197      -0.26757247      -1.61059222        1 
H       3.51777906       1.41757944       0.86679683        1 
H       2.86363700       1.96202418      -0.68832872        1 
H       1.04969309       1.64775223       1.36038197        1 
H      -3.25597692       1.94338880       0.45745276        1 
H      -2.49184559       3.31594513       1.31982247        1 
H      -2.76523582      -3.03492550      -0.01584874        1 
H      -3.53306211      -1.52210338       0.55707630        1 
