29
Lattice="0.0 0.0 0.0 0.0 0.0 0.0 0.0 0.0 0.0" Properties=species:S:1:pos:R:3:Z:I:1 pbc="F F F"
C      -0.54240022       0.52927595      -0.79149826        6 
C      -0.48576317      -1.00083793      -0.37133107        6 
C       0.72403229       1.34135671      -0.55445994        6 
C       0.80635975      -1.52626968       0.23618277        6 
O       0.63928335       2.12212691       0.53970574        8 
O       1.70327718       1.28976647      -1.25701915        8 
O       1.79710909      -1.49721730      -0.66829424        8 
O       0.91788879      -2.00138790       1.34035296        8 
C       3.08389431      -1.97107681      -0.23335244        6 
C       1.80716924       2.90227429       0.85345069        6 
C      -1.78835129       0.98320367       0.01343775        6 
C      -3.06682204       0.41941012      -0.64819908        6 
C      -3.00083781      -1.07416749      -0.20548813        6 
C      -1.68632509      -1.08186044       0.60227684        6 
O      -1.68562936       0.21406931       1.21880805        8 
H      -0.71172872       0.59051941      -1.86795425        1 
H      -0.64968713      -1.60790485      -1.26506171        1 
H       3.42705274      -1.39950175       0.62999728        1 
H       2.04345787       3.58296755       0.03418722        1 
H      -1.80905187       2.04149677       0.25487391        1 
H      -3.94946561       0.91669533      -0.24387392        1 
H      -3.07253256       0.54826914      -1.73240333        1 
H      -3.84075697      -1.33682178       0.43881823        1 
H      -2.98568207      -1.77315074      -1.04452681        1 
H      -1.58454108      -1.85005409       1.36297632        1 
H       3.03081335      -3.02820481       0.03240285        1 
H       3.74712945      -1.81757651      -1.08113505        1 
H       2.66203304       2.24928592       1.03542458        1 
H       1.55034671       3.45534200       1.75396832        1 
