29
Lattice="0.0 0.0 0.0 0.0 0.0 0.0 0.0 0.0 0.0" Properties=species:S:1:pos:R:3:Z:I:1 pbc="F F F"
C      -0.78218830      -0.30090151      -0.69795115        6 
C       0.74659805      -0.40801680      -0.48442209        6 
C      -1.46315799       0.84956858       0.03097235        6 
C       1.54134685       0.87975583      -0.44169158        6 
O      -2.76036600       0.91377430      -0.36024756        8 
O      -0.97645790       1.58973074       0.84180601        8 
O       2.74883201       0.67062573       0.12981901        8 
O       1.18953825       1.93907933      -0.89109490        8 
C       3.61921765       1.81671644       0.19434524        6 
C      -3.55863093       1.92852311       0.27586518        6 
C      -1.20912775      -1.59655915       0.06622456        6 
C      -0.60687210      -2.86651490      -0.58885022        6 
C       0.84546763      -2.85513823      -0.01449678        6 
C       0.85666557      -1.46983587       0.65909845        6 
O      -0.44333627      -1.44963900       1.27202622        8 
H      -1.08370057      -0.30030864      -1.74444577        1 
H       1.15106522      -0.87799697      -1.39045548        1 
H       3.84588367       2.18085549      -0.80898359        1 
H      -3.13207321       2.91630270       0.09610499        1 
H      -2.26905273      -1.64696563       0.30193921        1 
H      -1.15649383      -3.75537024      -0.27773252        1 
H      -0.63704414      -2.81841798      -1.67979303        1 
H       0.97936476      -3.63692985       0.73462960        1 
H       1.61772749      -2.96863202      -0.77788120        1 
H       1.62709285      -1.28143636       1.39964395        1 
H       3.14969566       2.61580964       0.76942342        1 
H       4.52271143       1.46660913       0.68865652        1 
H      -3.61404657       1.75167571       1.35139174        1 
H      -4.54481001       1.84789729      -0.17652101        1 
