29
Lattice="0.0 0.0 0.0 0.0 0.0 0.0 0.0 0.0 0.0" Properties=species:S:1:pos:R:3:Z:I:1 pbc="F F F"
C       0.50148818       0.93278842       0.42466321        6 
C       0.62892835      -0.59022412       0.78315574        6 
C      -0.85375963       1.41631735      -0.05606118        6 
C      -0.48824408      -1.55176736       0.42726051        6 
O      -1.76552748       1.29455010       0.93517135        8 
O      -1.09731294       1.89123329      -1.13487365        8 
O      -1.25654339      -1.13194386      -0.58839180        8 
O      -0.61146083      -2.63067988       0.95885988        8 
C      -2.28010471      -2.03535239      -1.04219049        6 
C      -3.11783034       1.64249401       0.59168039        6 
C       1.62508489       1.10182528      -0.62957404        6 
C       2.98432858       1.16952389       0.09539377        6 
C       3.14790424      -0.31268472       0.55205700        6 
C       1.88847994      -0.95715176      -0.07037055        6 
O       1.67870531      -0.19157002      -1.25844067        8 
H       0.71719141       1.51487820       1.32448900        1 
H       0.81716908      -0.73900768       1.84541098        1 
H      -1.83413552      -2.96462436      -1.39897454        1 
H      -3.47145194       1.00990591      -0.22444725        1 
H       1.42581504       1.86403112      -1.37658893        1 
H       3.76980255       1.45920737      -0.60366123        1 
H       2.98602509       1.87908079       0.92550083        1 
H       4.04813962      -0.76424246       0.13301855        1 
H       3.18493396      -0.43100715       1.63661175        1 
H       1.97023056      -2.01445588      -0.31257635        1 
H      -2.97691501      -2.25754149      -0.23258034        1 
H      -2.78128180      -1.51469940      -1.85499609        1 
H      -3.18184014       2.68861548       0.28889183        1 
H      -3.70199686       1.46763091       1.49260643        1 
