29
Lattice="0.0 0.0 0.0 0.0 0.0 0.0 0.0 0.0 0.0" Properties=species:S:1:pos:R:3:Z:I:1 pbc="F F F"
C      -0.56444117       0.61033540      -0.80921326        6 
C      -0.54038272      -0.89611549      -0.39872962        6 
C       0.62529173       1.47614762      -0.43714347        6 
C       0.77940223      -1.55334227      -0.04700390        6 
O       1.06264804       1.24945169       0.81246574        8 
O       1.06756939       2.34166203      -1.15561986        8 
O       1.80916955      -0.99347786      -0.71009028        8 
O       0.87710821      -2.56280947       0.60721561        8 
C       3.09692640      -1.61162092      -0.53467070        6 
C       2.16297007       2.05980836       1.25685495        6 
C      -1.81420933       1.06868558       0.01443910        6 
C      -3.09769944       0.44166982      -0.58340261        6 
C      -3.01860482      -1.01068469      -0.01723127        6 
C      -1.64846922      -0.96687592       0.68899326        6 
O      -1.64636155       0.35651704       1.24495736        8 
H      -0.71167027       0.74350043      -1.87914890        1 
H      -0.86143992      -1.48366231      -1.26675684        1 
H       3.39877882      -1.56435655       0.51275820        1 
H       1.90259170       3.11822135       1.21320994        1 
H      -1.86064738       2.13847769       0.20718440        1 
H      -3.98106811       0.96571849      -0.21682351        1 
H      -3.11052188       0.48090779      -1.67445395        1 
H      -3.80776051      -1.19207773       0.71354063        1 
H      -3.08009811      -1.78287960      -0.78666442        1 
H      -1.47113845      -1.70673872       1.46398163        1 
H       3.06604696      -2.65440242      -0.85360483        1 
H       3.77891058      -1.03746791      -1.15775006        1 
H       3.04145895       1.88085762       0.63378732        1 
H       2.35104367       1.75286634       2.28320408        1 
