29
Lattice="0.0 0.0 0.0 0.0 0.0 0.0 0.0 0.0 0.0" Properties=species:S:1:pos:R:3:Z:I:1 pbc="F F F"
C      -0.38587136      -0.72604779       0.51735605        6 
C      -0.69386886       0.81120318       0.57645825        6 
C       0.91816236      -1.10700732      -0.15065551        6 
C       0.40785487       1.73243874       0.07968672        6 
O       1.56137593      -2.05032267       0.57504430        8 
O       1.31911523      -0.69775613      -1.21106519        8 
O       1.55992827       1.47909661       0.73722708        8 
O       0.27277633       2.61931704      -0.72247505        8 
C       2.71630768       2.21057746       0.28917599        6 
C       2.78654971      -2.54974684       0.00791351        6 
C      -1.59929552      -1.21117901      -0.34359345        6 
C      -2.87637106      -1.18297809       0.52604611        6 
C      -3.17449701       0.34780738       0.56319033        6 
C      -1.99167408       0.89980650      -0.26100304        6 
O      -1.79801097      -0.12525712      -1.24926855        8 
H      -0.40091857      -1.17129432       1.51027906        1 
H      -0.86999799       1.09935800       1.61678979        1 
H       2.94593581       1.93724810      -0.74189018        1 
H       3.50369223      -1.73772801      -0.12080574        1 
H      -1.42346046      -2.12917373      -0.90065359        1 
H      -3.67917419      -1.73564659       0.03620452        1 
H      -2.71879770      -1.61768848       1.51532291        1 
H      -4.11704511       0.57936733       0.06561909        1 
H      -3.21518210       0.75631223       1.57505558        1 
H      -2.14044030       1.85804252      -0.74964163        1 
H       2.54021562       3.28488870       0.35232020        1 
H       3.52394988       1.91315801       0.95450208        1 
H       2.59698198      -3.01625576      -0.96003662        1 
H       3.15916975      -3.28180330       0.72094456        1 
