29
Lattice="0.0 0.0 0.0 0.0 0.0 0.0 0.0 0.0 0.0" Properties=species:S:1:pos:R:3:Z:I:1 pbc="F F F"
C      -0.87061825       0.53352613      -0.79128957        6 
C      -0.14203776      -0.81962582      -0.54254993        6 
C      -0.17214106       1.82858584      -0.40816532        6 
C       1.37216707      -0.79063503      -0.50566901        6 
O       0.58659959       1.71731860       0.68970827        8 
O      -0.39345518       2.87625595      -0.97056148        8 
O       1.85439306      -1.90492230       0.08653859        8 
O       2.07300973       0.06674249      -0.98057587        8 
C       3.28893053      -2.03018490       0.12647962        6 
C       1.25544282       2.91391004       1.12181580        6 
C      -2.08320184       0.33871279       0.18052232        6 
C      -3.00431777      -0.79690436      -0.33031163        6 
C      -2.21418334      -2.06214958       0.12974075        6 
C      -0.92733341      -1.40709120       0.67010155        6 
O      -1.44883748      -0.24362502       1.32643353        8 
H      -1.19111326       0.65373238      -1.82432681        1 
H      -0.33783420      -1.46250820      -1.40981295        1 
H       3.69601899      -2.06810130      -0.88509514        1 
H       0.53110934       3.69850270       1.34532049        1 
H      -2.58587701       1.26167479       0.46061074        1 
H      -3.98215495      -0.73818850       0.14908731        1 
H      -3.15635841      -0.75164226      -1.41070818        1 
H      -2.73442377      -2.57992347       0.93703883        1 
H      -2.02819457      -2.77735716      -0.67367748        1 
H      -0.33423726      -1.99618071       1.36257866        1 
H       3.72860757      -1.18673422       0.66021447        1 
H       3.48311711      -2.96183217       0.65332461        1 
H       1.94002911       3.26135282       0.34646323        1 
H       1.80320145       2.63035430       2.01765561        1 
