29
Lattice="0.0 0.0 0.0 0.0 0.0 0.0 0.0 0.0 0.0" Properties=species:S:1:pos:R:3:Z:I:1 pbc="F F F"
C      -0.93245108      -0.01411092      -0.83400069        6 
C       0.38561478      -0.77963324      -0.47488694        6 
C      -0.97833300       1.49327026      -0.61311463        6 
C       1.62913935       0.02780432      -0.16390109        6 
O      -0.98992071       1.83493425       0.67882418        8 
O      -1.12888403       2.27989462      -1.52074701        8 
O       2.71864602      -0.75534691      -0.35917948        8 
O       1.70049191       1.16068000       0.23759313        8 
C       3.98990611      -0.15767636      -0.04147942        6 
C      -0.97632723       3.24311922       0.96121805        6 
C      -1.92612008      -0.75648459       0.11496040        6 
C      -2.14936073      -2.20255158      -0.39064330        6 
C      -0.84384799      -2.90180750       0.09813063        6 
C      -0.08968064      -1.69926773       0.70230521        6 
O      -1.14279868      -0.94659180       1.30129936        8 
H      -1.18261038      -0.15982253      -1.88351595        1 
H       0.66584352      -1.41390579      -1.31719377        1 
H       4.16418429       0.72002570      -0.66565230        1 
H      -1.83536238       3.73789858       0.50506726        1 
H      -2.82633269      -0.19716834       0.35661566        1 
H      -3.03440117      -2.63822063       0.07480571        1 
H      -2.28126695      -2.24774487      -1.47353683        1 
H      -1.05615829      -3.63369423       0.87894663        1 
H      -0.28929444      -3.40096800      -0.69836208        1 
H       0.67398065      -1.93103115       1.44108691        1 
H       4.02196431       0.13642301       1.00874451        1 
H       4.73052229      -0.92719292      -0.24749249        1 
H      -0.05417513       3.68575951       0.58142843        1 
H      -1.01689548       3.31916761       2.04543285        1 
