29
Lattice="0.0 0.0 0.0 0.0 0.0 0.0 0.0 0.0 0.0" Properties=species:S:1:pos:R:3:Z:I:1 pbc="F F F"
C       0.69778532      -0.79507182      -0.55158245        6 
C       0.37370427       0.73769691      -0.52299040        6 
C      -0.40361761      -1.73038403      -0.08596926        6 
C      -0.91774558       1.11520315       0.17104607        6 
O      -1.55213771      -1.46747655      -0.74606081        8 
O      -0.26643317      -2.64459588       0.68512434        8 
O      -1.56066575       2.08160376      -0.52428261        8 
O      -1.31261115       0.68139644       1.22376328        8 
C      -2.78140057       2.56904427       0.06316830        6 
C      -2.70195911      -2.23783001      -0.34914215        6 
C       1.98055416      -0.86284256       0.31214435        6 
C       3.17654712      -0.35059880      -0.51681833        6 
C       2.87040878       1.17832136      -0.56376347        6 
C       1.59473529       1.25114482       0.30730264        6 
O       1.78591740       0.20222147       1.25759221        8 
H       0.90459796      -1.09126799      -1.58438605        1 
H       0.36015698       1.16522131      -1.52373964        1 
H      -3.50276697       1.75692931       0.16633777        1 
H      -2.95339903      -2.01636948       0.68922498        1 
H       2.11277699      -1.80357398       0.83812997        1 
H       4.11039205      -0.55167391       0.00982799        1 
H       3.23809771      -0.81050878      -1.50541164        1 
H       3.67235289       1.76243295      -0.11055468        1 
H       2.70623640       1.55545445      -1.57538710        1 
H       1.42765518       2.19374948       0.82459419        1 
H      -2.58749087       3.00177588       1.04573499        1 
H      -3.15218640       3.32620043      -0.62414603        1 
H      -2.50611801      -3.30512422      -0.45808731        1 
H      -3.50470492      -1.92446778      -1.01319854        1 
