29
Lattice="0.0 0.0 0.0 0.0 0.0 0.0 0.0 0.0 0.0" Properties=species:S:1:pos:R:3:Z:I:1 pbc="F F F"
C      -0.77454458      -0.30949834      -0.48548687        6 
C       0.76501832      -0.43458352      -0.62040166        6 
C      -1.36081811       1.08105650      -0.36248714        6 
C       1.58940288       0.61510879       0.10690696        6 
O      -2.67119848       0.99908474      -0.03244606        8 
O      -0.78816728       2.12080598      -0.55925950        8 
O       2.78309406       0.76331310      -0.51994391        8 
O       1.28883445       1.19862091       1.11291329        8 
C       3.69568734       1.69410921       0.08997227        6 
C      -3.37087627       2.25262607       0.08628332        6 
C      -1.11201754      -1.39665613       0.58727873        6 
C      -1.22179625      -2.74756350      -0.14532276        6 
C       0.26481237      -2.94880622      -0.57892195        6 
C       0.96005713      -1.77804142       0.16246887        6 
O       0.12018259      -1.56084302       1.30135283        8 
H      -1.20562160      -0.65164800      -1.43466883        1 
H       1.09741812      -0.50199811      -1.65441436        1 
H       3.25764690       2.69312999       0.11210399        1 
H      -3.34623152       2.79405333      -0.86062969        1 
H      -1.91452708      -1.14170091       1.27240764        1 
H      -1.53756442      -3.52488521       0.55230794        1 
H      -1.92206668      -2.73037879      -0.98254366        1 
H       0.65804164      -3.90709146      -0.23749606        1 
H       0.40727917      -2.89329564      -1.66028417        1 
H       1.98183650      -1.96704312       0.48421554        1 
H       3.93459350       1.38458770       1.10879221        1 
H       4.58626254       1.67914313      -0.53474750        1 
H      -2.91676887       2.86737870       0.86443596        1 
H      -4.39258803       1.98962538       0.35145196        1 
