29
Lattice="0.0 0.0 0.0 0.0 0.0 0.0 0.0 0.0 0.0" Properties=species:S:1:pos:R:3:Z:I:1 pbc="F F F"
C       0.13172350       1.07222168       0.35998902        6 
C       0.56506322      -0.39060600       0.73599688        6 
C      -1.27820843       1.26127910      -0.16754201        6 
C      -0.31716322      -1.49329404       0.15708030        6 
O      -2.16246322       1.22181054       0.84905111        8 
O      -1.57058038       1.51091140      -1.30967297        8 
O       0.37371225      -2.64170419       0.01288553        8 
O      -1.49667823      -1.40512397      -0.07640163        8 
C      -0.36904808      -3.76816790      -0.49346018        6 
C      -3.55056824       1.23820117       0.47261889        6 
C       1.25179020       1.47423776      -0.63789629        6 
C       2.47014459       1.94652808       0.17457186        6 
C       2.91849159       0.59746718       0.81626728        6 
C       1.98194805      -0.40918844       0.10516147        6 
O       1.71421632       0.21449556      -1.15975001        8 
H       0.18760578       1.68272320       1.26388159        1 
H       0.57695743      -0.53952783       1.81882680        1 
H      -1.19829508      -4.00978931       0.17295903        1 
H      -3.77751600       0.35173111      -0.12145718        1 
H       0.91878251       2.10817304      -1.45426417        1 
H       3.23725762       2.34065696      -0.49361563        1 
H       2.22363150       2.71634771       0.90838894        1 
H       3.96164832       0.37175288       0.59231371        1 
H       2.79710481       0.57729748       1.90188884        1 
H       2.38986843      -1.40242203      -0.04942059        1 
H      -0.75763984      -3.54691230      -1.48821632        1 
H       0.34418240      -4.58831556      -0.53391231        1 
H      -3.78469893       2.13630800      -0.10065632        1 
H      -4.10589633       1.22429744       1.40813692        1 
