29
Lattice="0.0 0.0 0.0 0.0 0.0 0.0 0.0 0.0 0.0" Properties=species:S:1:pos:R:3:Z:I:1 pbc="F F F"
C       0.45907215       0.90329170       0.35932280        6 
C       0.60141853      -0.57994016       0.83417509        6 
C      -0.91441731       1.40608769      -0.03431169        6 
C      -0.40932693      -1.61502317       0.35525882        6 
O      -1.77525980       1.26681740       0.99754250        8 
O      -1.19334186       1.95805130      -1.06859239        8 
O      -1.36832086      -1.11992232      -0.43929098        8 
O      -0.29388289      -2.79138237       0.60671871        8 
C      -2.26541972      -2.07150595      -1.04142231        6 
C      -3.13264470       1.66385132       0.74130387        6 
C       1.54230022       0.99188621      -0.75119358        6 
C       2.89676703       1.26375005      -0.07253329        6 
C       3.11445151      -0.09163533       0.66871631        6 
C       1.94137839      -0.93625625       0.11871890        6 
O       1.70020116      -0.37345266      -1.18070191        8 
H       0.74028682       1.54469704       1.20076591        1 
H       0.66803841      -0.67046988       1.91864159        1 
H      -1.70444604      -2.78822254      -1.64214594        1 
H      -3.55283588       1.06016805      -0.06521613        1 
H       1.26916401       1.61904045      -1.59439253        1 
H       3.66715327       1.42919625      -0.82675121        1 
H       2.87572300       2.12744845       0.59528685        1 
H       4.06852683      -0.54751205       0.40235759        1 
H       3.08012785       0.00071891       1.75645641        1 
H       2.12246978      -2.00453749       0.03926948        1 
H      -2.82848730      -2.60261884      -0.27285576        1 
H      -2.92827854      -1.48139453      -1.67028245        1 
H      -3.18177550       2.71798117       0.46475378        1 
H      -3.66974034       1.48536433       1.67040919        1 
