29
Lattice="0.0 0.0 0.0 0.0 0.0 0.0 0.0 0.0 0.0" Properties=species:S:1:pos:R:3:Z:I:1 pbc="F F F"
C       0.65161831      -0.79566383      -0.63888658        6 
C       0.44367300       0.75600181      -0.45187002        6 
C      -0.44456396      -1.65492862      -0.02929557        6 
C      -0.87689244       1.15656157       0.16788428        6 
O      -1.58210445      -1.52819639      -0.75295463        8 
O      -0.35172740      -2.33497914       0.95684253        8 
O      -1.55746147       1.98830148      -0.65353502        8 
O      -1.28110316       0.81925146       1.25240429        8 
C      -2.83827417       2.43419749      -0.17093360        6 
C      -2.75047084      -2.16290017      -0.19808902        6 
C       1.99944084      -0.99152104       0.09435918        6 
C       3.14098483      -0.35394776      -0.73104838        6 
C       2.92968227       1.16072056      -0.42339770        6 
C       1.66515687       1.09877524       0.45905152        6 
O       1.86725856      -0.09806910       1.20945257        8 
H       0.70670912      -1.03464378      -1.70259577        1 
H       0.52226436       1.26107650      -1.41325522        1 
H      -3.50164291       1.58164385      -0.01614963        1 
H      -2.96550449      -1.74530992       0.78659339        1 
H       2.16771357      -2.00158438       0.45637640        1 
H       4.11076987      -0.70294246      -0.37434769        1 
H       3.06852921      -0.59079718      -1.79496305        1 
H       3.76271277       1.56643350       0.15235767        1 
H       2.80124588       1.77352623      -1.31777764        1 
H       1.50788671       1.93576618       1.13554080        1 
H      -2.72594731       2.97613032       0.76930643        1 
H      -3.22969362       3.08786830      -0.94724225        1 
H      -2.59820629      -3.23955531      -0.11096637        1 
H      -3.55709095      -1.94645768      -0.89541320        1 
