29
Lattice="0.0 0.0 0.0 0.0 0.0 0.0 0.0 0.0 0.0" Properties=species:S:1:pos:R:3:Z:I:1 pbc="F F F"
C      -0.48621307       0.39505811      -0.73842426        6 
C       0.01022114      -0.99768793      -0.26640053        6 
C       0.09664872       1.59968210       0.00790278        6 
C       1.45994877      -1.33714422       0.01460435        6 
O      -0.68110568       2.68836998      -0.21316277        8 
O       1.12083975       1.64969497       0.63455106        8 
O       2.32093517      -0.48017814      -0.54861809        8 
O       1.78985209      -2.40633664       0.47656725        8 
C       3.71430602      -0.82608527      -0.45663247        6 
C      -0.23623251       3.91291212       0.39708023        6 
C      -1.96541242       0.25814710      -0.24838159        6 
C      -2.70024701      -0.95140527      -0.87850189        6 
C      -2.18637147      -2.13383252       0.00193942        6 
C      -1.07240066      -1.41299637       0.77902542        6 
O      -1.71939579      -0.16952608       1.10702766        8 
H      -0.37865628       0.55433815      -1.81221630        1 
H      -0.13671335      -1.65130454      -1.13707416        1 
H       4.01994706      -0.88222241       0.58883197        1 
H       0.75656137       4.18310262       0.03367737        1 
H      -2.51927727       1.19057217      -0.24601363        1 
H      -3.78016190      -0.82572658      -0.79571868        1 
H      -2.46061666      -1.07087086      -1.93788018        1 
H      -2.96006506      -2.48513237       0.68666339        1 
H      -1.82000872      -2.98409623      -0.57607463        1 
H      -0.69433515      -1.89559530       1.67538160        1 
H       3.90484638      -1.78531062      -0.94116157        1 
H       4.24335673      -0.02310063      -0.96461707        1 
H      -0.20459018       3.80591592       1.48224299        1 
H      -0.96820933       4.66376010       0.10709174        1 
