29
Lattice="0.0 0.0 0.0 0.0 0.0 0.0 0.0 0.0 0.0" Properties=species:S:1:pos:R:3:Z:I:1 pbc="F F F"
C      -0.40147502      -0.75277288       0.56370753        6 
C      -0.74728444       0.75281867       0.79365431        6 
C       1.05844354      -1.15159093       0.64098537        6 
C       0.19015797       1.82076745       0.22417927        6 
O       1.44914166      -1.89362472      -0.41465965        8 
O       1.77658454      -0.87939333       1.57044593        8 
O       1.40118603       1.36429974      -0.11804596        8 
O      -0.16766294       2.95901809       0.03423489        8 
C       2.29188265       2.31366868      -0.73247023        6 
C       2.82030787      -2.33212938      -0.39813661        6 
C      -1.26694194      -1.09575597      -0.68949171        6 
C      -2.66286906      -1.49586504      -0.17930563        6 
C      -3.13544710      -0.13105849       0.41202726        6 
C      -2.02716939       0.82776742      -0.08787518        6 
O      -1.54008266       0.18602720      -1.28258636        8 
H      -0.82140401      -1.29030580       1.42164974        1 
H      -0.92569956       0.98615443       1.84425045        1 
H       1.88238770       2.64918638      -1.68637174        1 
H       3.01369795      -2.95031079       0.47977544        1 
H      -0.79577315      -1.74985385      -1.41548544        1 
H      -3.29279251      -1.80329988      -1.01546072        1 
H      -2.63982840      -2.30474962       0.55415623        1 
H      -4.10627229       0.16703314       0.01522628        1 
H      -3.20853658      -0.14036153       1.50199053        1 
H      -2.34125784       1.84219431      -0.31191036        1 
H       2.44121946       3.17363474      -0.07899337        1 
H       3.22614069       1.77682319      -0.88054060        1 
H       3.49070702      -1.47164212      -0.38478097        1 
H       2.95203873      -2.90813266      -1.31141969        1 
