29
Lattice="0.0 0.0 0.0 0.0 0.0 0.0 0.0 0.0 0.0" Properties=species:S:1:pos:R:3:Z:I:1 pbc="F F F"
C       0.55857754       0.89800155       0.41963908        6 
C       0.55792475      -0.61517910       0.81011107        6 
C      -0.73783081       1.61054222       0.08767928        6 
C      -0.65827550      -1.45702429       0.46855308        6 
O      -1.81732535       0.98177852       0.58478323        8 
O      -0.77945282       2.70519401      -0.42080079        8 
O      -1.04487633      -1.31932156      -0.81040389        8 
O      -1.16008300      -2.24178317       1.23902371        8 
C      -2.17160083      -2.10993827      -1.22154283        6 
C      -3.08537149       1.64170225       0.41379525        6 
C       1.65986433       0.96147694      -0.67771839        6 
C       3.03768602       0.95829899       0.01506008        6 
C       3.08991888      -0.50834660       0.54641041        6 
C       1.78151278      -1.08905046      -0.04347733        6 
O       1.61561466      -0.34903372      -1.25789886        8 
H       0.90381498       1.46546845       1.29133937        1 
H       0.72584974      -0.75698056       1.87595440        1 
H      -1.96024236      -3.17365035      -1.10191032        1 
H      -3.30051885       1.77888529      -0.64683043        1 
H       1.49497017       1.72128559      -1.43611936        1 
H       3.82362856       1.13980412      -0.71908668        1 
H       3.12256428       1.71119990       0.80094952        1 
H       3.95378477      -1.04520400       0.15280330        1 
H       3.11925725      -0.57308624       1.63587543        1 
H       1.79667272      -2.15533698      -0.25901361        1 
H      -3.05292851      -1.85180145      -0.63128705        1 
H      -2.32744826      -1.86650850      -2.27027589        1 
H      -3.07938466       2.61345150       0.90932646        1 
H      -3.81689420       0.98041592       0.87279752        1 
