29
Lattice="0.0 0.0 0.0 0.0 0.0 0.0 0.0 0.0 0.0" Properties=species:S:1:pos:R:3:Z:I:1 pbc="F F F"
C       0.56330922      -0.73383263      -0.79036142        6 
C       0.69031479       0.82295501      -0.58731460        6 
C      -0.78273312      -1.42385893      -0.62187888        6 
C      -0.53389915       1.70847418      -0.46264004        6 
O      -1.20568415      -1.47526066       0.64706828        8 
O      -1.33758542      -1.99983927      -1.53142965        8 
O      -1.46105499       1.24666011       0.38783942        8 
O      -0.63078251       2.76509461      -1.04429708        8 
C      -2.62295079       2.07528602       0.57736813        6 
C      -2.44560226      -2.16289985       0.87583076        6 
C       1.57683954      -1.22139568       0.29310793        6 
C       3.01914337      -0.87773259      -0.14805750        6 
C       3.08292832       0.64522489       0.18336061        6 
C       1.63646352       0.89009220       0.66145921        6 
O       1.33870480      -0.31060370       1.37262094        8 
H       0.88531478      -0.99653090      -1.79666431        1 
H       1.20784093       1.23797505      -1.45121441        1 
H      -2.33661660       3.04739698       0.98122970        1 
H      -2.37720979      -3.20296359       0.55242242        1 
H       1.41800115      -2.24186411       0.63289006        1 
H       3.74199697      -1.44457687       0.44000023        1 
H       3.19467405      -1.09796012      -1.20273770        1 
H       3.78194787       0.84382589       0.99716316        1 
H       3.36331852       1.26648074      -0.66851236        1 
H       1.48524520       1.75292772       1.30646698        1 
H      -3.14678193       2.21925161      -0.36870245        1 
H      -3.24704116       1.53442653       1.28527624        1 
H      -3.25783475      -1.67461386       0.33396237        1 
H      -2.61275995      -2.10390751       1.94906996        1 
