29
Lattice="0.0 0.0 0.0 0.0 0.0 0.0 0.0 0.0 0.0" Properties=species:S:1:pos:R:3:Z:I:1 pbc="F F F"
C      -0.84591479       0.58253365      -0.81651143        6 
C      -0.19995140      -0.80404465      -0.54255502        6 
C      -0.12021870       1.83842388      -0.35311946        6 
C       1.31190186      -0.88022295      -0.58493212        6 
O       0.86216967       1.60345142       0.52511276        8 
O      -0.49846538       2.94643358      -0.65647002        8 
O       1.77530197      -1.87502834       0.20102526        8 
O       2.01837513      -0.19120347      -1.27650295        8 
C       3.20039385      -2.08326566       0.18030308        6 
C       1.51487289       2.76000270       1.07644646        6 
C      -2.09354490       0.44985818       0.11940705        6 
C      -3.02770072      -0.69147935      -0.35289046        6 
C      -2.29208936      -1.94837559       0.20888570        6 
C      -0.98728121      -1.30016514       0.70936811        6 
O      -1.48415665      -0.08869163       1.30325064        8 
H      -1.11984171       0.73262092      -1.85956232        1 
H      -0.47405857      -1.45319539      -1.38408610        1 
H       3.53242410      -2.34919124      -0.82442152        1 
H       0.79504158       3.38626849       1.60536737        1 
H      -2.57942681       1.39593737       0.34362546        1 
H      -4.02005737      -0.57630517       0.08439389        1 
H      -3.14034067      -0.70903313      -1.43913023        1 
H      -2.83762745      -2.38385207       1.04742806        1 
H      -2.12931845      -2.72780459      -0.53789469        1 
H      -0.40409138      -1.86069877       1.43259008        1 
H       3.71994266      -1.18024950       0.50314361        1 
H       3.38334830      -2.90085204       0.87402806        1 
H       1.98828107       3.34093554       0.28378186        1 
H       2.26232091       2.36944842       1.76326168        1 
