29
Lattice="0.0 0.0 0.0 0.0 0.0 0.0 0.0 0.0 0.0" Properties=species:S:1:pos:R:3:Z:I:1 pbc="F F F"
C       0.72839556      -0.71711234      -0.49750073        6 
C       0.30664047       0.78710042      -0.54134915        6 
C      -0.26557973      -1.84023744      -0.27180562        6 
C      -0.97556107       1.19909487       0.16411655        6 
O      -1.52772053      -1.43576702      -0.08217279        8 
O       0.05413377      -3.00191307      -0.37935624        8 
O      -1.76165240       1.90127598      -0.69218163        8 
O      -1.26838379       0.99825494       1.31246961        8 
C      -3.00261229       2.38142432      -0.14596947        6 
C      -2.51945862      -2.46770191       0.07494732        6 
C       1.94468839      -0.69140214       0.48650367        6 
C       3.18738536      -0.23035926      -0.29968879        6 
C       2.81721771       1.26328581      -0.56101890        6 
C       1.50765796       1.39765738       0.25513457        6 
O       1.67619021       0.44590785       1.31102317        8 
H       1.11442488      -0.96931168      -1.48929499        1 
H       0.26303706       1.15223768      -1.56581698        1 
H      -3.60514622       1.54751591       0.21761515        1 
H      -2.27024775      -3.10623125       0.92294226        1 
H       2.05831049      -1.58429009       1.09531746        1 
H       4.07484673      -0.31170268       0.32951451        1 
H       3.35784923      -0.80461119      -1.21204445        1 
H       3.58023699       1.93962781      -0.17399239        1 
H       2.67046414       1.49147492      -1.61888729        1 
H       1.31506108       2.38165444       0.67678150        1 
H      -2.81777304       3.07291480       0.67781927        1 
H      -3.50512325       2.88913036      -0.96659425        1 
H      -2.58386419      -3.07493407      -0.82934428        1 
H      -3.45392277      -1.94120015       0.25469614        1 
