29
Lattice="0.0 0.0 0.0 0.0 0.0 0.0 0.0 0.0 0.0" Properties=species:S:1:pos:R:3:Z:I:1 pbc="F F F"
C       0.63816310      -0.79914251      -0.63660878        6 
C       0.44751592       0.75469303      -0.44559291        6 
C      -0.45677329      -1.64683937      -0.00868377        6 
C      -0.87183541       1.17098893       0.16627871        6 
O      -1.57880999      -1.57714321      -0.76499605        8 
O      -0.38266406      -2.26160036       1.02056482        8 
O      -1.53749374       2.00960343      -0.66112005        8 
O      -1.28934566       0.83703904       1.24656519        8 
C      -2.81725379       2.46930555      -0.18856119        6 
C      -2.74956657      -2.20181309      -0.20359544        6 
C       1.99160864      -1.00489853       0.08522789        6 
C       3.13005067      -0.36861964      -0.74603604        6 
C       2.93456059       1.14483453      -0.42212987        6 
C       1.67305067       1.08479772       0.46465040        6 
O       1.87238867      -0.11753795       1.20626873        8 
H       0.67987195      -1.03868092      -1.70038149        1 
H       0.53404788       1.25778393      -1.40740437        1 
H      -3.49010104       1.62377724      -0.03630311        1 
H      -2.98773793      -1.74601582       0.75856000        1 
H       2.15911936      -2.01759074       0.44060869        1 
H       4.10085583      -0.72893213      -0.40360046        1 
H       3.04390152      -0.59451869      -1.81132822        1 
H       3.77332453       1.53650096       0.15503875        1 
H       2.80892925       1.76807898      -1.30965244        1 
H       1.52218003       1.91826481       1.14689078        1 
H      -2.70607701       3.01249825       0.75109410        1 
H      -3.19670654       3.12489243      -0.96918473        1 
H      -2.58592422      -3.27176117      -0.06726916        1 
H      -3.54582904      -2.02603043      -0.92386530        1 
