29
Lattice="0.0 0.0 0.0 0.0 0.0 0.0 0.0 0.0 0.0" Properties=species:S:1:pos:R:3:Z:I:1 pbc="F F F"
C      -0.53534964       0.59708598      -0.82969914        6 
C      -0.51189553      -0.88595755      -0.36079229        6 
C       0.59659517       1.52586676      -0.42513394        6 
C       0.79304644      -1.60689805      -0.09070467        6 
O       1.08976079       1.26486179       0.79391575        8 
O       0.92764810       2.47957514      -1.09173088        8 
O       1.85943316      -0.97557358      -0.61247757        8 
O       0.84168735      -2.72375420       0.36815437        8 
C       3.11684029      -1.67197756      -0.53161184        6 
C       2.10172473       2.16471999       1.27431556        6 
C      -1.81995286       1.06229835      -0.06208379        6 
C      -3.07366820       0.33792971      -0.61536587        6 
C      -2.96907715      -1.04754683       0.09716147        6 
C      -1.58915535      -0.90851297       0.76795402        6 
O      -1.62744464       0.45290559       1.22072965        8 
H      -0.64398959       0.69302699      -1.90836350        1 
H      -0.89868720      -1.48521002      -1.19377254        1 
H       3.38881074      -1.84274283       0.51089632        1 
H       1.70566968       3.17841247       1.35290863        1 
H      -1.91182051       2.14070948       0.04759889        1 
H      -3.97999199       0.87140742      -0.32725962        1 
H      -3.06078668       0.26308090      -1.70474312        1 
H      -3.74332695      -1.16000072       0.85743090        1 
H      -3.03151970      -1.89589196      -0.58691816        1 
H      -1.37249003      -1.58016961       1.59364586        1 
H       3.05574845      -2.63026565      -1.04927465        1 
H       3.83915305      -1.01807192      -1.01492903        1 
H       2.96073668       2.16742232       0.60110063        1 
H       2.38195327       1.78685537       2.25502276        1 
