29
Lattice="0.0 0.0 0.0 0.0 0.0 0.0 0.0 0.0 0.0" Properties=species:S:1:pos:R:3:Z:I:1 pbc="F F F"
C      -0.95707862       0.07617985      -0.81030104        6 
C       0.29561315      -0.83007951      -0.54272509        6 
C      -0.75211562       1.57626945      -0.63920622        6 
C       1.58531811      -0.14617867      -0.13931786        6 
O      -0.95569381       1.98969087       0.61750662        8 
O      -0.52357648       2.31552697      -1.56815515        8 
O       2.61685866      -1.00510030      -0.31506037        8 
O       1.72004850       0.96184112       0.31331854        8 
C       3.91307789      -0.52690200       0.09323394        6 
C      -0.67300633       3.37465003       0.87786803        6 
C      -1.96796680      -0.54692916       0.19662547        6 
C      -2.44327454      -1.91930335      -0.33119615        6 
C      -1.19559440      -2.80679237      -0.03057162        6 
C      -0.24342735      -1.76279056       0.59074298        6 
O      -1.13275593      -0.90756167       1.30793397        8 
H      -1.28287912      -0.04994576      -1.84243033        1 
H       0.52916869      -1.42426882      -1.42669808        1 
H       4.18793568       0.35956249      -0.47995293        1 
H      -1.29281876       4.02006018       0.25336062        1 
H      -2.74989748       0.12803893       0.53244392        1 
H      -3.31515809      -2.25714771       0.23033549        1 
H      -2.71072153      -1.89276405      -1.38936137        1 
H      -1.42818668      -3.58187989       0.70096981        1 
H      -0.77775573      -3.28749683      -0.91696827        1 
H       0.52139920      -2.15492678       1.25709533        1 
H       3.91102389      -0.28202748       1.15643602        1 
H       4.60029464      -1.34469342      -0.11151556        1 
H       0.38092728       3.57567434       0.68055899        1 
H      -0.90018897       3.52229992       1.93129367        1 
