29
Lattice="0.0 0.0 0.0 0.0 0.0 0.0 0.0 0.0 0.0" Properties=species:S:1:pos:R:3:Z:I:1 pbc="F F F"
C       0.52228435      -0.68156678      -0.83360657        6 
C       0.47038672       0.79934102      -0.32979908        6 
C      -0.45230240      -1.68926570      -0.20904377        6 
C      -0.84740465       1.44091764       0.04558144        6 
O      -1.65166144      -1.16431102       0.09007359        8 
O      -0.16250535      -2.83704756       0.02422211        8 
O      -1.71655517       1.36878517      -0.98284801        8 
O      -1.04320485       2.09799401       1.03897062        8 
C      -2.99634719       1.98751127      -0.77532763        6 
C      -2.58435071      -2.04288110       0.74916808        6 
C       1.92389593      -1.05501733      -0.27792355        6 
C       3.04448398      -0.16617185      -0.87050017        6 
C       2.91714777       1.12679920      -0.00420411        6 
C       1.60432244       0.81916074       0.73547105        6 
O       1.78390926      -0.56695535       1.07141067        8 
H       0.43541592      -0.74957415      -1.92006582        1 
H       0.78548577       1.41473337      -1.17994311        1 
H      -3.51426056       1.51494817       0.06115869        1 
H      -2.17808800      -2.37367817       1.70571870        1 
H       2.11709915      -2.12235604      -0.26466053        1 
H       4.01701851      -0.64284615      -0.74519685        1 
H       2.89966273       0.01950241      -1.93758528        1 
H       3.73890988       1.20763401       0.70872610        1 
H       2.87628089       2.04553996      -0.59296039        1 
H       1.37895935       1.39852487       1.62606487        1 
H      -2.88085996       3.05281465      -0.57011146        1 
H      -3.54792423       1.83228705      -1.70019309        1 
H      -2.79656775      -2.91233314       0.12580566        1 
H      -3.48262536      -1.44787701       0.89883892        1 
