29
Lattice="0.0 0.0 0.0 0.0 0.0 0.0 0.0 0.0 0.0" Properties=species:S:1:pos:R:3:Z:I:1 pbc="F F F"
C       0.53395960      -0.80321789      -0.61947267        6 
C       0.54813965       0.76641157      -0.42310290        6 
C      -0.56377695      -1.59396678       0.09132238        6 
C      -0.70875181       1.44540404       0.08701754        6 
O      -1.78661797      -1.28377334      -0.38147758        8 
O      -0.37726003      -2.43529047       0.93370245        8 
O      -1.65490826       1.46658511      -0.87089498        8 
O      -0.82114196       2.01078099       1.14734211        8 
C      -2.90885748       2.07102792      -0.51341864        6 
C      -2.89349168      -1.98678850       0.21455616        6 
C       1.90347813      -1.14961288       0.01224083        6 
C       3.06220582      -0.58275610      -0.84111809        6 
C       3.05115618       0.91889688      -0.41888643        6 
C       1.79859015       0.94823828       0.47736003        6 
O       1.89811694      -0.30213613       1.17262954        8 
H       0.46729483      -1.04843722      -1.68174284        1 
H       0.71695344       1.21417477      -1.40580822        1 
H      -3.34999049       1.55363745       0.34035810        1 
H      -2.93097631      -1.79719192       1.28822013        1 
H       1.99525079      -2.18659926       0.31975186        1 
H       4.00248346      -1.06790438      -0.57772641        1 
H       2.89838441      -0.72802735      -1.91161410        1 
H       3.93443051       1.17073748       0.16992098        1 
H       2.99640923       1.60865722      -1.26371101        1 
H       1.71781791       1.76300556       1.19088322        1 
H      -2.77161493       3.12387807      -0.26170162        1 
H      -3.54181840       1.96641230      -1.39189386        1 
H      -2.80164808      -3.06024405       0.04260936        1 
H      -3.78128603      -1.59472101      -0.27715045        1 
