29
Lattice="0.0 0.0 0.0 0.0 0.0 0.0 0.0 0.0 0.0" Properties=species:S:1:pos:R:3:Z:I:1 pbc="F F F"
C      -0.51360724      -0.78658833       0.50310874        6 
C      -0.52299721       0.79603660       0.50965879        6 
C       0.68877948      -1.42492161      -0.16640851        6 
C       0.66829096       1.45218289      -0.16296491        6 
O       1.57728539      -1.84456236       0.76856523        8 
O       0.86941396      -1.53952659      -1.34964052        8 
O       1.57805646       1.83355203       0.76819735        8 
O       0.82839764       1.60053497      -1.34512595        8 
C       2.78827675       2.42158013       0.25574946        6 
C       2.78746196      -2.43538809       0.25910894        6 
C      -1.83428771      -1.07265309      -0.26889260        6 
C      -3.03390858      -0.79480937       0.66568854        6 
C      -3.04367453       0.76594495       0.67625924        6 
C      -1.84900132       1.07177338      -0.25607578        6 
O      -1.90444385       0.00448273      -1.20391260        8 
H      -0.55397003      -1.15257287       1.52814161        1 
H      -0.56210947       1.15349368       1.53780463        1 
H       3.28657364       1.73361873      -0.42897049        1 
H       3.30933530      -1.73388850      -0.39359025        1 
H      -1.84791938      -2.02017476      -0.80167061        1 
H      -3.95014531      -1.19615520       0.23075620        1 
H      -2.90791007      -1.23224346       1.65821920        1 
H      -3.96575601       1.16159934       0.24857618        1 
H      -2.92157806       1.19094478       1.67465655        1 
H      -1.87665412       2.02483829      -0.77813975        1 
H       2.56728178       3.35079178      -0.27200940        1 
H       3.40882951       2.61496827       1.12797109        1 
H       2.56146764      -3.34302736      -0.30301769        1 
H       3.38853896      -2.66722963       1.13554000        1 
