29
Lattice="0.0 0.0 0.0 0.0 0.0 0.0 0.0 0.0 0.0" Properties=species:S:1:pos:R:3:Z:I:1 pbc="F F F"
C       0.57978116       0.88644673       0.43590848        6 
C       0.53887620      -0.62409732       0.83265495        6 
C      -0.67255060       1.71365451       0.21060533        6 
C      -0.68438120      -1.47538769       0.53095175        6 
O      -1.82002831       1.02135686       0.23879758        8 
O      -0.62798365       2.91997365       0.13076154        8 
O      -1.07728039      -1.41374747      -0.74849863        8 
O      -1.15751485      -2.24351200       1.33808439        8 
C      -2.19498997      -2.23947450      -1.10887958        6 
C      -3.03432048       1.78744223       0.12027391        6 
C       1.62035108       0.89972928      -0.73265685        6 
C       3.03202270       0.88494809      -0.11354449        6 
C       3.06922527      -0.56244774       0.46928000        6 
C       1.72777565      -1.13471116      -0.05229826        6 
O       1.52211230      -0.41985173      -1.27648347        8 
H       1.02755555       1.42383087       1.27701197        1 
H       0.73268923      -0.75744388       1.89523733        1 
H      -1.97248802      -3.29228503      -0.92762376        1 
H      -3.05752138       2.31390366      -0.83457153        1 
H       1.43488173       1.64469875      -1.50176720        1 
H       3.78220922       1.01495130      -0.89490910        1 
H       3.17906325       1.66388679       0.63615443        1 
H       3.90650349      -1.13406648       0.06740405        1 
H       3.13570955      -0.58862549       1.55888864        1 
H       1.71899536      -2.20544459      -0.24409583        1 
H      -3.07794934      -1.95681044      -0.53240457        1 
H      -2.35659567      -2.05906878      -2.16944828        1 
H      -3.10961320       2.51033707       0.93360019        1 
H      -3.83976307       1.05879272       0.17773482        1 
