29
Lattice="0.0 0.0 0.0 0.0 0.0 0.0 0.0 0.0 0.0" Properties=species:S:1:pos:R:3:Z:I:1 pbc="F F F"
C      -0.30222120       0.57406351      -0.69718997        6 
C      -0.46842693      -0.91513978      -0.30596870        6 
C       0.76144334       1.34856949       0.07432220        6 
C       0.71301856      -1.82396173      -0.03684003        6 
O       0.76780721       2.63649141      -0.35114675        8 
O       1.50514441       0.93024692       0.92035628        8 
O       1.86171435      -1.34729133      -0.53966464        8 
O       0.58125857      -2.95732002       0.36463695        8 
C       3.00527844      -2.21537678      -0.44729802        6 
C       1.70511878       3.50991096       0.30409581        6 
C      -1.67347223       1.09521692      -0.14735846        6 
C      -2.87766534       0.40424410      -0.83747777        6 
C      -2.94920784      -0.95030946      -0.06335811        6 
C      -1.63494944      -0.87020243       0.73123971        6 
O      -1.65462712       0.50251612       1.16215555        8 
H      -0.16968200       0.73627969      -1.76648911        1 
H      -0.86690488      -1.40795285      -1.20237939        1 
H       3.22527615      -2.43827370       0.59738635        1 
H       2.72299162       3.13558469       0.18533199        1 
H      -1.73764796       2.17649513      -0.06518630        1 
H      -3.78455241       0.99498736      -0.70370769        1 
H      -2.71855167       0.27557797      -1.91056603        1 
H      -3.79946369      -0.97134652       0.62003560        1 
H      -3.00531359      -1.82408069      -0.71513283        1 
H      -1.52620286      -1.53547069       1.58269518        1 
H       2.82477833      -3.14735853      -0.98587068        1 
H       3.82481771      -1.66048645      -0.89826953        1 
H       1.47364082       3.58664500       1.36772223        1 
H       1.59167466       4.47577190      -0.18343423        1 
