29
Lattice="0.0 0.0 0.0 0.0 0.0 0.0 0.0 0.0 0.0" Properties=species:S:1:pos:R:3:Z:I:1 pbc="F F F"
C       0.70093840      -0.78652220      -0.53351709        6 
C       0.36540580       0.74247304      -0.52673600        6 
C      -0.39606313      -1.73655152      -0.08998423        6 
C      -0.91960768       1.12050976       0.18011394        6 
O      -1.55690650      -1.44334171      -0.71310520        8 
O      -0.24130517      -2.69431610       0.62365955        8 
O      -1.58080854       2.06977174      -0.52198382        8 
O      -1.29515459       0.70118496       1.24549237        8 
C      -2.79750865       2.55598540       0.07461455        6 
C      -2.69224350      -2.25265304      -0.35378427        6 
C       1.97738240      -0.83754365       0.34232848        6 
C       3.17738324      -0.34465627      -0.49240745        6 
C       2.86498336       1.18116907      -0.58339292        6 
C       1.58940934       1.27541164       0.28641867        6 
O       1.78070249       0.24924011       1.26171448        8 
H       0.92638964      -1.08938709      -1.56097505        1 
H       0.33725315       1.15647619      -1.53283709        1 
H      -3.50984743       1.73928513       0.20156755        1 
H      -2.91310015      -2.13176266       0.70761037        1 
H       2.10515354      -1.76751430       0.88827907        1 
H       4.10837781      -0.52685849       0.04607401        1 
H       3.24733852      -0.83153326      -1.46742535        1 
H       3.66512301       1.78068765      -0.14745350        1 
H       2.69935310       1.52895930      -1.60521999        1 
H       1.42393568       2.23051279       0.78078625        1 
H      -2.59382120       3.00686549       1.04699569        1 
H      -3.18501558       3.29818645      -0.61978818        1 
H      -2.49721110      -3.30408843      -0.56870301        1 
H      -3.51554714      -1.88308086      -0.96128106        1 
