29
Lattice="0.0 0.0 0.0 0.0 0.0 0.0 0.0 0.0 0.0" Properties=species:S:1:pos:R:3:Z:I:1 pbc="F F F"
C      -0.75658251       0.42953562       0.61768900        6 
C       0.77905244       0.28097564       0.46205499        6 
C      -1.62588208      -0.58210195      -0.11237849        6 
C       1.35883095      -1.10898473       0.30535694        6 
O      -2.77945577      -0.76193698       0.58208699        8 
O      -1.39466529      -1.11406243      -1.16323626        8 
O       2.70639947      -1.01673083       0.18100653        8 
O       0.76518381      -2.15465910       0.29526690        8 
C       3.40731171      -2.26404189       0.01477411        6 
C      -3.73457074      -1.65535388      -0.01835215        6 
C      -0.93650177       1.78904679      -0.14186408        6 
C      -0.20535116       2.93499587       0.60408473        6 
C       1.26905169       2.71335913       0.13865210        6 
C       1.11925751       1.37412933      -0.60773273        6 
O      -0.12024412       1.57095065      -1.29726722        8 
H      -1.07063101       0.48770710       1.65803784        1 
H       1.22590324       0.61249109       1.40626052        1 
H       3.26280869      -2.90139800       0.88863276        1 
H      -3.29559624      -2.64512483      -0.15175488        1 
H      -1.95911889       2.00342972      -0.44484641        1 
H      -0.58720534       3.90590636       0.28629023        1 
H      -0.32814342       2.86373442       1.68691897        1 
H       1.58465733       3.49324441      -0.55622794        1 
H       1.98548569       2.67333043       0.96113615        1 
H       1.90428255       1.11166444      -1.31072524        1 
H       3.04796982      -2.78603553      -0.87306688        1 
H       4.45561564      -1.99513413      -0.09462981        1 
H      -4.05900381      -1.27393751      -0.98827535        1 
H      -4.57126487      -1.69594295       0.67597087        1 
