29
Lattice="0.0 0.0 0.0 0.0 0.0 0.0 0.0 0.0 0.0" Properties=species:S:1:pos:R:3:Z:I:1 pbc="F F F"
C       0.16817631       1.06208806       0.37409868        6 
C       0.54043614      -0.41813008       0.72110009        6 
C      -1.24267282       1.33539611      -0.11361171        6 
C      -0.34887771      -1.47396172       0.07293668        6 
O      -2.12315546       1.13775001       0.88867971        8 
O      -1.53642432       1.78004923      -1.19418552        8 
O       0.25500673      -2.68081000       0.10538901        8 
O      -1.45975067      -1.30866128      -0.36353733        8 
C      -0.49068854      -3.77758678      -0.45772243        6 
C      -3.51242277       1.23913393       0.52997183        6 
C       1.29399011       1.44037491      -0.62589738        6 
C       2.52899433       1.86500600       0.18659223        6 
C       2.92737067       0.49775746       0.82369966        6 
C       1.96396203      -0.47327552       0.09902137        6 
O       1.71856586       0.17081023      -1.16048009        8 
H       0.26202871       1.65328383       1.28931399        1 
H       0.53668362      -0.60653282       1.79710076        1 
H      -1.41008520      -3.94300314       0.10635940        1 
H      -3.75757863       0.46903454      -0.20303032        1 
H       0.97593537       2.09210021      -1.43402681        1 
H       3.30996262       2.23270108      -0.48062673        1 
H       2.31137766       2.64097921       0.92290909        1 
H       3.96443236       0.23864410       0.60765189        1 
H       2.79519876       0.47490774       1.90795293        1 
H       2.34132713      -1.47785261      -0.06282998        1 
H      -0.73848014      -3.57156375      -1.49955263        1 
H       0.16591183      -4.64142412      -0.38193601        1 
H      -3.73317903       2.22384965       0.11577514        1 
H      -4.06452733       1.07831394       1.45359089        1 
