29
Lattice="0.0 0.0 0.0 0.0 0.0 0.0 0.0 0.0 0.0" Properties=species:S:1:pos:R:3:Z:I:1 pbc="F F F"
C      -0.65312544       0.35380484      -0.67575118        6 
C      -0.03747028      -1.06905610      -0.41499902        6 
C       0.20367835       1.53843070      -0.25210876        6 
C       1.34986729      -1.09823447       0.20533460        6 
O      -0.55556690       2.62895476      -0.02699453        8 
O       1.40728527       1.54573450      -0.18270156        8 
O       2.28808196      -1.27053842      -0.74791067        8 
O       1.58902590      -1.02432539       1.38353926        8 
C       3.65228661      -1.17390009      -0.30110503        6 
C       0.15454890       3.82862118       0.33938325        6 
C      -2.00126287       0.23252924       0.08174241        6 
C      -2.94315639      -0.73630353      -0.67073224        6 
C      -2.32854440      -2.11708962      -0.28887118        6 
C      -1.11047824      -1.66830438       0.54259900        6 
O      -1.61618195      -0.51907711       1.23923667        8 
H      -0.81862450       0.49949970      -1.74804046        1 
H       0.01167338      -1.62234720      -1.35234712        1 
H       3.83244980      -0.18005505       0.11106161        1 
H       0.83220508       4.12916099      -0.46108935        1 
H      -2.43643026       1.18120767       0.37834092        1 
H      -3.96313317      -0.63633669      -0.29751830        1 
H      -2.95755423      -0.55325268      -1.74726208        1 
H      -3.01308716      -2.69940943       0.32951655        1 
H      -2.04897704      -2.72268048      -1.15347471        1 
H      -0.71918638      -2.38391479       1.26032942        1 
H       3.86305814      -1.92844848       0.45818831        1 
H       4.26107671      -1.33963718      -1.18736385        1 
H       0.72519127       3.66411182       1.25406276        1 
H      -0.61450081       4.58163890       0.49559047        1 
