29
Lattice="0.0 0.0 0.0 0.0 0.0 0.0 0.0 0.0 0.0" Properties=species:S:1:pos:R:3:Z:I:1 pbc="F F F"
C      -0.43616870      -0.74365736       0.45416604        6 
C      -0.64490428       0.80796792       0.63734561        6 
C       0.88659202      -1.15257926      -0.15619337        6 
C       0.44960508       1.66491912       0.01993586        6 
O       1.53642124      -2.01999024       0.65377084        8 
O       1.31187452      -0.80157560      -1.22799822        8 
O       1.57191810       1.58597677       0.77351436        8 
O       0.37192969       2.29532752      -0.99969388        8 
C       2.74228426       2.21243264       0.21350112        6 
C       2.80291451      -2.50084713       0.16709903        6 
C      -1.65627947      -1.09226473      -0.45803971        6 
C      -2.92107007      -1.15609050       0.42396093        6 
C      -3.13477786       0.35851324       0.73029926        6 
C      -1.99483431       0.99763334      -0.09678633        6 
O      -1.86141506       0.10221587      -1.21015883        8 
H      -0.52017330      -1.24515475       1.41702308        1 
H      -0.70078514       1.04999784       1.70000170        1 
H       2.97591126       1.76212832      -0.75233569        1 
H       3.49302820      -1.66862792       0.02016780        1 
H      -1.49683446      -1.93053929      -1.13257734        1 
H      -3.75293844      -1.56330565      -0.15250008        1 
H      -2.79258910      -1.76839722       1.31865420        1 
H      -4.10545025       0.70526501       0.37377565        1 
H      -3.06232355       0.59635786       1.79395686        1 
H      -2.16795820       2.00597831      -0.46152393        1 
H       2.57991638       3.28347219       0.08488640        1 
H       3.54015809       2.02986330       0.93017063        1 
H       2.67286463      -3.02970411      -0.77839643        1 
H       3.17283188      -3.17472289       0.93663799        1 
