29
Lattice="0.0 0.0 0.0 0.0 0.0 0.0 0.0 0.0 0.0" Properties=species:S:1:pos:R:3:Z:I:1 pbc="F F F"
C       0.72900126      -0.85621111      -0.60021215        6 
C       0.58441742       0.70301271      -0.81940001        6 
C      -0.56135806      -1.62803946      -0.42672820        6 
C      -0.84089220       1.21107071      -0.66407728        6 
O      -1.24287766      -1.24635181       0.67040137        8 
O      -0.94078855      -2.48716833      -1.18466058        8 
O      -1.06867679       1.80826776       0.51435187        8 
O      -1.66686262       1.12374433      -1.54273389        8 
C      -2.41665237       2.25024300       0.74782219        6 
C      -2.51566231      -1.88606339       0.87896651        6 
C       1.69308551      -0.88837755       0.62628135        6 
C       3.12606799      -0.61962075       0.12013232        6 
C       3.03258273       0.90204048      -0.21169347        6 
C       1.58792392       1.22189040       0.24134320        6 
O       1.38239643       0.31389715       1.33332647        8 
H       1.20136584      -1.30445436      -1.47293876        1 
H       0.87702818       0.95646645      -1.83864695        1 
H      -2.71743469       2.98492647      -0.00061911        1 
H      -2.38991488      -2.96454043       0.98388647        1 
H       1.56987289      -1.74690139       1.28252401        1 
H       3.84558165      -0.80755703       0.91828628        1 
H       3.39833992      -1.23650927      -0.73806121        1 
H       3.75099804       1.48159815       0.36920554        1 
H       3.19640492       1.12275710      -1.26857405        1 
H       1.40963741       2.23993621       0.57456735        1 
H      -3.10047099       1.40059216       0.71217585        1 
H      -2.40737384       2.69238087       1.74144556        1 
H      -3.18112144      -1.68040774       0.03909549        1 
H      -2.90737416      -1.45517479       1.79787999        1 
