29
Lattice="0.0 0.0 0.0 0.0 0.0 0.0 0.0 0.0 0.0" Properties=species:S:1:pos:R:3:Z:I:1 pbc="F F F"
C       0.76025961      -0.71041583      -0.80612621        6 
C       0.30612504       0.75281745      -0.51487238        6 
C      -0.04695594      -1.87170002      -0.21165844        6 
C      -1.16904589       1.08691229      -0.58569186        6 
O      -1.31350609      -1.56465119       0.09101246        8 
O       0.44858038      -2.94688026       0.03058995        8 
O      -1.53048526       1.97043132       0.37051930        8 
O      -1.92467847       0.66691029      -1.42432931        8 
C      -2.90560906       2.39750578       0.34172737        6 
C      -2.09007905      -2.60298759       0.71684051        6 
C       2.07892217      -0.69434095       0.02038589        6 
C       3.07288570       0.38616950      -0.46981387        6 
C       2.50650669       1.67310199       0.20886287        6 
C       1.16856954       1.12335115       0.73422433        6 
O       1.57563715      -0.15168572       1.25903493        8 
H       0.90503540      -0.90138630      -1.87055821        1 
H       0.68749810       1.34475688      -1.35700645        1 
H      -3.13432923       2.88562261      -0.60684187        1 
H      -1.64889701      -2.87836637       1.67587256        1 
H       2.49455792      -1.68174943       0.19061383        1 
H       4.08258721       0.15990873      -0.12626462        1 
H       3.10060087       0.45456061      -1.55988532        1 
H       3.13476015       1.98972211       1.04271491        1 
H       2.38990253       2.51430297      -0.47776436        1 
H       0.65740144       1.69880244       1.49872783        1 
H      -3.57074009       1.54306860       0.47424169        1 
H      -3.00922853       3.09661569       1.16861181        1 
H      -2.13729110      -3.48255819       0.07396133        1 
H      -3.08076361      -2.17568737       0.85466255        1 
