29
Lattice="0.0 0.0 0.0 0.0 0.0 0.0 0.0 0.0 0.0" Properties=species:S:1:pos:R:3:Z:I:1 pbc="F F F"
C      -0.58386158      -0.95721462       0.63578114        6 
C      -0.60638592       0.61828877       0.70755468        6 
C       0.62039784      -1.65585087       0.00192158        6 
C       0.72679544       1.34065989       0.66514251        6 
O       1.78648554      -1.07495047       0.31780302        8 
O       0.53772709      -2.65215674      -0.67399230        8 
O       1.01960975       1.80604286      -0.56521470        8 
O       1.44964696       1.47348646       1.62113764        8 
C       2.30243901       2.44029895      -0.70751829        6 
C       2.97347906      -1.68333599      -0.22399464        6 
C      -1.81730823      -1.19105809      -0.27257774        6 
C      -3.12384790      -0.74413437       0.42214070        6 
C      -3.06171775       0.80310265       0.23634189        6 
C      -1.66179424       0.95094304      -0.38992922        6 
O      -1.60824562      -0.17910915      -1.27296000        8 
H      -0.69974428      -1.38673854       1.63422122        1 
H      -1.00246338       0.88478900       1.68967042        1 
H       2.38025416       3.30212139      -0.04333936        1 
H       2.94455274      -1.65933369      -1.31429631        1 
H      -1.83284069      -2.17127653      -0.73789185        1 
H      -3.98850116      -1.17437194      -0.08424107        1 
H      -3.16325082      -1.05073843       1.47002950        1 
H      -3.82288140       1.14840134      -0.46507341        1 
H      -3.17602793       1.35940679       1.16902802        1 
H      -1.47230826       1.86266900      -0.94857401        1 
H       3.09865408       1.73271706      -0.47058222        1 
H       2.36000216       2.74949371      -1.74879376        1 
H       3.05856182      -2.71752000       0.11197283        1 
H       3.79957381      -1.08698260       0.15657113        1 
