29
Lattice="0.0 0.0 0.0 0.0 0.0 0.0 0.0 0.0 0.0" Properties=species:S:1:pos:R:3:Z:I:1 pbc="F F F"
C       0.57870141       0.97078080       0.65710257        6 
C       0.59963357      -0.60477984       0.69612321        6 
C      -0.61150495       1.68156948       0.00945484        6 
C      -0.73290922      -1.32935399       0.67814126        6 
O      -1.78270360       1.08418181       0.27149177        8 
O      -0.51440693       2.69157983      -0.64381289        8 
O      -1.00959976      -1.87096192      -0.52480871        8 
O      -1.46661337      -1.40784393       1.63170568        8 
C      -2.28462482      -2.52698451      -0.64015418        6 
C      -2.95806282       1.69343375      -0.29410362        6 
C       1.82035780       1.21573062      -0.23758728        6 
C       3.12033807       0.73370247       0.44695342        6 
C       3.04693312      -0.80583255       0.20690302        6 
C       1.64293604      -0.92061831      -0.41671827        6 
O       1.60050369       0.23517235      -1.26707114        8 
H       0.68165737       1.38286020       1.66391112        1 
H       1.01306940      -0.88430385       1.66807885        1 
H      -2.36291193      -3.34222307       0.08034697        1 
H      -2.89408570       1.69636010      -1.38313258        1 
H       1.84860653       2.20819557      -0.67532018        1 
H       3.99108238       1.17492892      -0.03907990        1 
H       3.15619996       1.00312244       1.50521911        1 
H       3.80185478      -1.13104483      -0.51060418        1 
H       3.16131828      -1.39527313       1.11897673        1 
H       1.43938627      -1.81364085      -0.99977316        1 
H      -3.09086059      -1.81345120      -0.46250904        1 
H      -2.32497789      -2.90685370      -1.65865099        1 
H      -3.06633640       2.71785128       0.06429794        1 
H      -3.78941253       1.07909925       0.04449475        1 
