29
Lattice="0.0 0.0 0.0 0.0 0.0 0.0 0.0 0.0 0.0" Properties=species:S:1:pos:R:3:Z:I:1 pbc="F F F"
C      -0.69729008       0.55712089      -0.78346946        6 
C      -0.19967320      -0.89436852      -0.42343600        6 
C       0.15824331       1.79850658      -0.59724688        6 
C       1.20552372      -1.12797174       0.10570157        6 
O       0.81328055       1.83520154       0.56172614        8 
O       0.13807885       2.71328622      -1.39222256        8 
O       1.85297838      -1.99122283      -0.72449744        8 
O       1.71138490      -0.67433043       1.09646384        8 
C       3.19549525      -2.33999917      -0.34249399        6 
C       1.57593564       3.02230212       0.83886148        6 
C      -1.96557430       0.65211048       0.12870177        6 
C      -3.09059943      -0.23131354      -0.45470932        6 
C      -2.59046881      -1.65245311      -0.05093912        6 
C      -1.26366326      -1.30179057       0.65500061        6 
O      -1.56573218      -0.06189905       1.29956504        8 
H      -0.98396680       0.58409192      -1.83393114        1 
H      -0.29929475      -1.51965714      -1.30905942        1 
H       3.82571256      -1.44987690      -0.30772363        1 
H       0.91870316       3.89109363       0.90397273        1 
H      -2.25359070       1.66717801       0.39342870        1 
H      -4.04131185       0.00594263       0.02428068        1 
H      -3.21008526      -0.10227044      -1.53177246        1 
H      -3.27472702      -2.12941037       0.65240285        1 
H      -2.45508653      -2.32455460      -0.90012210        1 
H      -0.91139594      -2.01925069       1.39270273        1 
H       3.20238539      -2.82030428       0.63733801        1 
H       3.54619950      -3.02753342      -1.10920921        1 
H       2.31688667       3.19070977       0.05599029        1 
H       2.06024822       2.83082390       1.79324285        1 
