29
Lattice="0.0 0.0 0.0 0.0 0.0 0.0 0.0 0.0 0.0" Properties=species:S:1:pos:R:3:Z:I:1 pbc="F F F"
C       0.21746656       0.95864241       0.54330272        6 
C       0.64891857      -0.52191276       0.83188451        6 
C      -1.27255761       1.24566252       0.54982609        6 
C      -0.32638079      -1.57802161       0.29852104        6 
O      -1.72540679       1.66232241      -0.64941581        8 
O      -1.97147016       1.10091633       1.51949601        8 
O       0.32345538      -2.63260866      -0.23669652        8 
O      -1.52454325      -1.54485490       0.41767897        8 
C      -0.50542380      -3.69944937      -0.73264325        6 
C      -3.14978285       1.86259623      -0.74103337        6 
C       1.10244693       1.31290539      -0.69042925        6 
C       2.45046645       1.81836384      -0.14716705        6 
C       2.97994593       0.50817597       0.51379216        6 
C       1.95780160      -0.53865823       0.00258577        6 
O       1.47584510       0.03237077      -1.22994537        8 
H       0.56962673       1.54535566       1.39713013        1 
H       0.78064657      -0.70612253       1.89977667        1 
H      -1.12716082      -4.10577335       0.06640653        1 
H      -3.47238184       2.64055494      -0.04736418        1 
H       0.61641954       1.91038715      -1.45480103        1 
H       3.09196995       2.13231213      -0.97203578        1 
H       2.35111635       2.65100058       0.55233686        1 
H       3.98545889       0.26083049       0.17237427        1 
H       3.00206475       0.56067879       1.60493354        1 
H       2.35865823      -1.52822531      -0.18474505        1 
H      -1.14558456      -3.33691886      -1.53812597        1 
H       0.18620229      -4.45229463      -1.10447752        1 
H      -3.67045169       0.93274408      -0.50903431        1 
H      -3.33409180       2.16397881      -1.76983993        1 
