29
Lattice="0.0 0.0 0.0 0.0 0.0 0.0 0.0 0.0 0.0" Properties=species:S:1:pos:R:3:Z:I:1 pbc="F F F"
C      -0.40511129       0.75110562      -0.71588887        6 
C      -0.68258740      -0.79562315      -0.66715722        6 
C       1.00393133       1.18785862      -0.33233509        6 
C       0.52981270      -1.70407181      -0.54205467        6 
O       1.01284870       2.47263279       0.07979579        8 
O       2.00508274       0.52680483      -0.44307245        8 
O       0.89295802      -1.89318222       0.73822775        8 
O       1.07239449      -2.22566539      -1.48485961        8 
C       2.10627147      -2.63863228       0.94111208        6 
C       2.30385509       3.02036928       0.41037271        6 
C      -1.47847421       1.25503414       0.28635417        6 
C      -2.90004247       1.04187735      -0.28459137        6 
C      -3.10002412      -0.48613406      -0.04783926        6 
C      -1.71289884      -0.87104513       0.50057707        6 
O      -1.38297720       0.26326151       1.31848524        8 
H      -0.57148151       1.14117819      -1.72365989        1 
H      -1.14634443      -1.09478480      -1.60739154        1 
H       2.01702204      -3.64112364       0.51979028        1 
H       2.97033477       2.97140971      -0.45164190        1 
H      -1.27812558       2.23900289       0.69663776        1 
H      -3.62580907       1.63197266       0.27626375        1 
H      -2.97409610       1.32983267      -1.33581386        1 
H      -3.86590576      -0.67223851       0.70642823        1 
H      -3.36771978      -1.03660881      -0.95143646        1 
H      -1.66203591      -1.77810036       1.09562966        1 
H       2.93997707      -2.11709991       0.46897739        1 
H       2.24065254      -2.68524943       2.01968677        1 
H       2.74674826       2.46857618       1.24055523        1 
H       2.11469611       4.05324614       0.69380371        1 
