29
Lattice="0.0 0.0 0.0 0.0 0.0 0.0 0.0 0.0 0.0" Properties=species:S:1:pos:R:3:Z:I:1 pbc="F F F"
C      -0.66330087       0.59156789      -0.76278191        6 
C      -0.51888725      -0.95091585      -0.46283760        6 
C       0.55961257       1.46603361      -0.57603704        6 
C       0.79692780      -1.37547463       0.16842381        6 
O       1.09751860       1.34348415       0.64747969        8 
O       0.98754269       2.21057821      -1.42676672        8 
O       1.75788373      -1.44222952      -0.78303653        8 
O       0.99719371      -1.59150334       1.33411004        8 
C       3.08413615      -1.74966166      -0.31612425        6 
C       2.26779996       2.13378457       0.91873639        6 
C      -1.85421137       0.95405668       0.18459446        6 
C      -3.16595652       0.46760238      -0.46946806        6 
C      -3.03965391      -1.07317082      -0.25952468        6 
C      -1.70336250      -1.16119165       0.51326799        6 
O      -1.69391054       0.05253882       1.27838693        8 
H      -0.94674595       0.73712756      -1.80392554        1 
H      -0.63425053      -1.51328254      -1.39081746        1 
H       3.41686421      -0.99515613       0.39870180        1 
H       2.03016143       3.19747659       0.86716567        1 
H      -1.85434154       1.98087015       0.54424940        1 
H      -4.02300544       0.87195778       0.07088544        1 
H      -3.25386891       0.76058444      -1.51718184        1 
H      -3.85714711      -1.45955064       0.35026654        1 
H      -3.01960041      -1.63691023      -1.19465082        1 
H      -1.58608547      -2.01050328       1.18031838        1 
H       3.10317087      -2.72951340       0.16324996        1 
H       3.71356163      -1.74318151      -1.20308718        1 
H       3.05400965       1.90815855       0.19639201        1 
H       2.57335244       1.85576784       1.92465145        1 
