29
Lattice="0.0 0.0 0.0 0.0 0.0 0.0 0.0 0.0 0.0" Properties=species:S:1:pos:R:3:Z:I:1 pbc="F F F"
C      -0.84470745      -0.32482719      -0.66491007        6 
C       0.68758586      -0.62014833      -0.59924334        6 
C      -1.20464615       1.14847821      -0.58209360        6 
C       1.52265525       0.46685506       0.04902901        6 
O      -2.16864420       1.40082031       0.31815752        8 
O      -0.71295260       1.98609182      -1.29871891        8 
O       2.80959526       0.35962878      -0.35112496        8 
O       1.13815827       1.28374315       0.84580733        8 
C       3.72706929       1.30719662       0.22787310        6 
C      -2.54770139       2.78340006       0.46102254        6 
C      -1.40694214      -1.30919538       0.39829684        6 
C      -1.48978479      -2.71251242      -0.23726880        6 
C       0.02436039      -3.06792976      -0.35463699        6 
C       0.67196130      -1.85593299       0.35703636        6 
O      -0.31367014      -1.46897106       1.31868642        8 
H      -1.20228978      -0.61408235      -1.65869701        1 
H       1.11591460      -0.86135424      -1.57047333        1 
H       3.43625908       2.32441320      -0.03845879        1 
H      -2.92234184       3.17600098      -0.48529769        1 
H      -2.28849524      -0.96099386       0.92597466        1 
H      -2.00371918      -3.39778474       0.43839080        1 
H      -2.01441618      -2.71863108      -1.19468355        1 
H       0.26151472      -3.99124054       0.17553353        1 
H       0.36590575      -3.17359617      -1.38638370        1 
H       1.61998719      -2.05368226       0.85286167        1 
H       3.74201747       1.21012327       1.31445890        1 
H       4.69955096       1.06321051      -0.19386934        1 
H      -1.68876657       3.37211200       0.78473190        1 
H      -3.32812543       2.79176487       1.21866956        1 
