29
Lattice="0.0 0.0 0.0 0.0 0.0 0.0 0.0 0.0 0.0" Properties=species:S:1:pos:R:3:Z:I:1 pbc="F F F"
C       0.75903931      -0.63222849      -0.58576503        6 
C       0.30660877       0.86760355      -0.49132144        6 
C      -0.19421712      -1.80024280      -0.41907060        6 
C      -1.01853127       1.21081981       0.17411419        6 
O      -1.31362939      -1.52374371       0.25560445        8 
O       0.05755360      -2.89039985      -0.88141849        8 
O      -1.85194012       1.77089810      -0.74218719        8 
O      -1.32206350       1.04787933       1.32483156        8 
C      -3.15049511       2.15201644      -0.25427240        6 
C      -2.23440997      -2.61184613       0.45675212        6 
C       1.96091408      -0.66610990       0.42134667        6 
C       3.20098538      -0.08890635      -0.28969299        6 
C       2.79729220       1.41532800      -0.38138832        6 
C       1.46266513       1.41931208       0.40347590        6 
O       1.63683400       0.36288617       1.35548953        8 
H       1.15325664      -0.79629601      -1.58990798        1 
H       0.30391653       1.31933748      -1.48198748        1 
H      -3.68189286       1.28151815       0.13396403        1 
H      -1.75347821      -3.41815592       1.01185186        1 
H       2.09701440      -1.61460952       0.93508424        1 
H       4.08398338      -0.22335121       0.33684482        1 
H       3.39258080      -0.55248403      -1.25869274        1 
H       3.52984733       2.05681179       0.10965041        1 
H       2.67531607       1.76749251      -1.40776265        1 
H       1.22570775       2.34317596       0.92570826        1 
H      -3.05954120       2.89618305       0.53864920        1 
H      -3.67320880       2.56897126      -1.11252364        1 
H      -2.58791084      -2.99463035      -0.50191034        1 
H      -3.05417529      -2.18726273       1.03162180        1 
