29
Lattice="0.0 0.0 0.0 0.0 0.0 0.0 0.0 0.0 0.0" Properties=species:S:1:pos:R:3:Z:I:1 pbc="F F F"
C      -0.70604255       0.58392695       0.57524225        6 
C       0.80933615       0.28336919       0.74183742        6 
C      -1.62482509      -0.62263887       0.57822647        6 
C       1.27047518      -0.99811347       0.05753994        6 
O      -2.55441004      -0.56033572      -0.39393415        8 
O      -1.55861085      -1.50881894       1.39283165        8 
O       2.61248402      -1.12026335       0.17196143        8 
O       0.57760696      -1.81292257      -0.49347806        8 
C       3.18961636      -2.29349436      -0.43249339        6 
C      -3.45459164      -1.68218634      -0.47315623        6 
C      -0.70974288       1.59626877      -0.61046980        6 
C      -0.48210041       2.99721230      -0.01401741        6 
C       0.98066549       2.83785551       0.50855334        6 
C       1.37781614       1.46844940      -0.09591704        6 
O       0.55115474       1.36577005      -1.26792594        8 
H      -1.02210464       1.11621482       1.47964387        1 
H       1.14563766       0.27855737       1.77848622        1 
H       2.77080644      -3.19629059       0.01452398        1 
H      -4.02321793      -1.78349323       0.45245664        1 
H      -1.52511950       1.48018020      -1.31643145        1 
H      -0.54047662       3.75296715      -0.79893541        1 
H      -1.19784665       3.25626803       0.76884401        1 
H       1.63233430       3.62652980       0.13130207        1 
H       1.04899586       2.84053405       1.59901231        1 
H       2.42381387       1.35930608      -0.36722438        1 
H       2.99702477      -2.30105481      -1.50636119        1 
H       4.25706230      -2.22637672      -0.23438197        1 
H      -2.89187593      -2.59852866      -0.65515874        1 
H      -4.11602908      -1.46370889      -1.30876912        1 
