29
Lattice="0.0 0.0 0.0 0.0 0.0 0.0 0.0 0.0 0.0" Properties=species:S:1:pos:R:3:Z:I:1 pbc="F F F"
C      -0.80765496      -0.14935771      -0.82742120        6 
C       0.65575233      -0.58644017      -0.47915575        6 
C      -1.24163507       1.21885442      -0.27821909        6 
C       1.76233585       0.45206523      -0.46016643        6 
O      -2.50864882       1.17779105       0.19577034        8 
O      -0.61112469       2.24061952      -0.34402740        8 
O       2.63660641       0.22501716       0.54782356        8 
O       1.88454007       1.34142699      -1.25906881        8 
C       3.75452909       1.13118437       0.61775913        6 
C      -3.03577249       2.42331605       0.68515953        6 
C      -1.55408219      -1.27849139      -0.06465129        6 
C      -1.18140054      -2.69010979      -0.58553355        6 
C       0.17434188      -2.95197040       0.14210733        6 
C       0.43089992      -1.55173386       0.72548557        6 
O      -0.87728757      -1.20084623       1.20632784        8 
H      -0.98156053      -0.13697867      -1.90507553        1 
H       0.97738080      -1.20312224      -1.32863860        1 
H       4.34479084       1.07920433      -0.29835358        1 
H      -3.04248609       3.17462179      -0.10610831        1 
H      -2.61411153      -1.10186673       0.07267252        1 
H      -1.94151742      -3.41667884      -0.29682357        1 
H      -1.09225831      -2.71713235      -1.67436016        1 
H       0.05773847      -3.67875392       0.94753446        1 
H       0.96885715      -3.29526462      -0.52388709        1 
H       1.15700162      -1.47430777       1.52760268        1 
H       3.40285483       2.15359296       0.76104511        1 
H       4.34135763       0.80172879       1.47241717        1 
H      -2.43505778       2.78642037       1.52015745        1 
H      -4.04887527       2.19906958       1.01227652        1 
