29
Lattice="0.0 0.0 0.0 0.0 0.0 0.0 0.0 0.0 0.0" Properties=species:S:1:pos:R:3:Z:I:1 pbc="F F F"
C       0.43257426       0.87022144       0.29368293        6 
C       0.56317021      -0.57542637       0.86162385        6 
C      -0.93084467       1.43315146      -0.03754140        6 
C      -0.37448695      -1.65360152       0.31153735        6 
O      -1.79573493       1.20275749       0.97198938        8 
O      -1.17593936       2.15125107      -0.97568915        8 
O      -1.42921549      -1.17160283      -0.36290072        8 
O      -0.13048434      -2.83324235       0.39926330        8 
C      -2.26261906      -2.14188438      -1.02530553        6 
C      -3.12525979       1.71889567       0.79683244        6 
C       1.51275084       0.88546170      -0.82749998        6 
C       2.84542886       1.27731300      -0.16720858        6 
C       3.06328405       0.03527759       0.75328368        6 
C       1.95487446      -0.92440645       0.25548495        6 
O       1.73480269      -0.50891347      -1.10679432        8 
H       0.76120330       1.54424356       1.09414236        1 
H       0.53389905      -0.61310367       1.95129432        1 
H      -1.67798625      -2.70437575      -1.75432720        1 
H      -3.59128885       1.26698925      -0.08074167        1 
H       1.22449510       1.41353754      -1.73154700        1 
H       3.63011953       1.35379782      -0.92121918        1 
H       2.79349008       2.22154813       0.37867018        1 
H       4.04821312      -0.40905086       0.60781936        1 
H       2.95592163       0.26732689       1.81549878        1 
H       2.19216847      -1.98304324       0.28781032        1 
H      -2.69647638      -2.83086649      -0.29951232        1 
H      -3.03882693      -1.56304590      -1.52070638        1 
H      -3.10682602       2.80310510       0.67597123        1 
H      -3.66603173       1.44207986       1.69928937        1 
