29
Lattice="0.0 0.0 0.0 0.0 0.0 0.0 0.0 0.0 0.0" Properties=species:S:1:pos:R:3:Z:I:1 pbc="F F F"
C       0.66391989      -0.83392340      -0.65216271        6 
C       0.58688412       0.74576952      -0.78719510        6 
C      -0.68086247      -1.52686313      -0.55608964        6 
C      -0.80946198       1.31622513      -0.58076027        6 
O      -1.10280288      -1.65317374       0.71820289        8 
O      -1.32623719      -1.87645930      -1.51192111        8 
O      -0.96686550       1.91228181       0.61438200        8 
O      -1.68488450       1.24373187      -1.40861113        8 
C      -2.28100885       2.42803932       0.89261280        6 
C      -2.41433588      -2.22220672       0.89130544        6 
C       1.63124568      -0.97662517       0.55623024        6 
C       3.07364822      -0.75147067       0.05584336        6 
C       3.05079199       0.78535542      -0.20641067        6 
C       1.62969251       1.15462785       0.28173114        6 
O       1.38699603       0.20449117       1.32849726        8 
H       1.11178525      -1.23502379      -1.56184244        1 
H       0.87722003       1.03853958      -1.79679260        1 
H      -2.55495943       3.19370375       0.16513031        1 
H      -2.44395198      -3.24097091       0.50141391        1 
H       1.46697162      -1.85756860       1.17090445        1 
H       3.78516678      -1.00806757       0.84209088        1 
H       3.31749948      -1.33962530      -0.83077002        1 
H       3.80373378       1.30316256       0.38884152        1 
H       3.21119367       1.04597410      -1.25470201        1 
H       1.50893142       2.16267517       0.66705569        1 
H      -3.01722198       1.62332828       0.85983847        1 
H      -2.21914759       2.85014378       1.89301963        1 
H      -3.15908980      -1.61824821       0.37077848        1 
H      -2.59185891      -2.21677039       1.96435680        1 
