29
Lattice="0.0 0.0 0.0 0.0 0.0 0.0 0.0 0.0 0.0" Properties=species:S:1:pos:R:3:Z:I:1 pbc="F F F"
C      -0.92360001      -0.03976999      -0.86716058        6 
C       0.43478773      -0.64483695      -0.42649310        6 
C      -1.34291729       1.36903156      -0.46047214        6 
C       1.69130731       0.20107528      -0.37811165        6 
O      -0.64204208       1.88523067       0.54806467        8 
O      -2.33764453       1.88389435      -0.92286293        8 
O       2.74701502      -0.62722837      -0.15484099        8 
O       1.80995184       1.39106108      -0.49760641        8 
C       4.03527241       0.00610645      -0.05440999        6 
C      -1.08845451       3.15568518       1.04999174        6 
C      -1.85920108      -0.97924228      -0.02697836        6 
C      -1.69732350      -2.46565242      -0.43943324        6 
C      -0.40431217      -2.86869601       0.33782814        6 
C       0.04084215      -1.48446180       0.84246941        6 
O      -1.20958642      -0.91851499       1.25312451        8 
H      -1.09682645      -0.13230296      -1.93864291        1 
H       0.69417648      -1.37627123      -1.19949817        1 
H       4.27492382       0.53457086      -0.97845602        1 
H      -2.10789584       3.07663133       1.43128156        1 
H      -2.88261100      -0.62302936       0.05437871        1 
H      -2.56083959      -3.04738269      -0.11593840        1 
H      -1.60141379      -2.58237222      -1.52110503        1 
H      -0.63736679      -3.51850484       1.18288605        1 
H       0.34519713      -3.36124375      -0.28384194        1 
H       0.75311714      -1.46050886       1.66228712        1 
H       4.05020505       0.71367674       0.77625173        1 
H       4.74291689      -0.80177282       0.11874600        1 
H      -1.05449101       3.90872706       0.26145163        1 
H      -0.39560569       3.40723147       1.84948841        1 
