29
Lattice="0.0 0.0 0.0 0.0 0.0 0.0 0.0 0.0 0.0" Properties=species:S:1:pos:R:3:Z:I:1 pbc="F F F"
C      -0.43870255      -0.74103628       0.44295773        6 
C      -0.61056744       0.81529832       0.62728239        6 
C       0.87797599      -1.19159841      -0.15148581        6 
C       0.47999280       1.65155280      -0.02484698        6 
O       1.48981040      -2.07615948       0.67153270        8 
O       1.33040550      -0.85759528      -1.21693992        8 
O       1.56141352       1.70666416       0.79108418        8 
O       0.44522595       2.14517890      -1.11879734        8 
C       2.73184208       2.33015344       0.22792969        6 
C       2.74434290      -2.60325982       0.20166443        6 
C      -1.66828681      -1.06690116      -0.46573740        6 
C      -2.92687374      -1.12037659       0.42547493        6 
C      -3.10672461       0.39360793       0.75624372        6 
C      -1.97174065       1.02396300      -0.08534008        6 
O      -1.86597236       0.13537477      -1.20616107        8 
H      -0.53911391      -1.23335237       1.40906767        1 
H      -0.64178266       1.06235817       1.68898733        1 
H       3.03120842       1.80648281      -0.68107818        1 
H       3.46369526      -1.79639062       0.05407052        1 
H      -1.52326392      -1.90162453      -1.14780739        1 
H      -3.77085361      -1.50122333      -0.15143993        1 
H      -2.80478835      -1.74901848       1.30963444        1 
H      -4.07836582       0.76254699       0.42549481        1 
H      -3.00747538       0.61515885       1.82127927        1 
H      -2.14131921       2.03643908      -0.44108907        1 
H       2.53274679       3.37669614      -0.00730593        1 
H       3.50046993       2.25034699       0.99377228        1 
H       2.60563039      -3.13620981      -0.74033969        1 
H       3.08384921      -3.28228383       0.98066224        1 
