29
Lattice="0.0 0.0 0.0 0.0 0.0 0.0 0.0 0.0 0.0" Properties=species:S:1:pos:R:3:Z:I:1 pbc="F F F"
C      -0.41933182       0.73891400      -0.72325613        6 
C      -0.69508868      -0.80854160      -0.65950456        6 
C       1.00424900       1.17152313      -0.39400994        6 
C       0.51474615      -1.71551282      -0.50754651        6 
O       1.03141862       2.41971224       0.11531755        8 
O       2.00028837       0.53274937      -0.62297611        8 
O       0.92614184      -1.79983224       0.76996324        8 
O       1.01879291      -2.31849619      -1.42262142        8 
C       2.13837646      -2.54195368       0.99039010        6 
C       2.33787906       2.95558892       0.40170469        6 
C      -1.47376890       1.25340369       0.29157598        6 
C      -2.90276536       1.05300312      -0.26566700        6 
C      -3.11013164      -0.47509055      -0.03528244        6 
C      -1.72446733      -0.87008568       0.51064648        6 
O      -1.38047658       0.26192912       1.32422284        8 
H      -0.60849014       1.11574062      -1.73248322        1 
H      -1.15577454      -1.12413082      -1.59531266        1 
H       2.02488436      -3.57355812       0.65377379        1 
H       2.93959453       2.99700193      -0.50712835        1 
H      -1.25969463       2.23534328       0.69950633        1 
H      -3.61864003       1.64412653       0.30669705        1 
H      -2.98671631       1.34716001      -1.31441113        1 
H      -3.87676456      -0.66085720       0.71828312        1 
H      -3.38067836      -1.02065325      -0.94096877        1 
H      -1.68118910      -1.77654078       1.10774721        1 
H       2.96091837      -2.07059757       0.45057609        1 
H       2.30952028      -2.50448928       2.06410888        1 
H       2.84552697       2.33683483       1.14260747        1 
H       2.16008918       3.95468155       0.79297233        1 
