29
Lattice="0.0 0.0 0.0 0.0 0.0 0.0 0.0 0.0 0.0" Properties=species:S:1:pos:R:3:Z:I:1 pbc="F F F"
C      -0.29637443      -0.85155678       0.50329310        6 
C      -0.74942676       0.64863605       0.59336182        6 
C       1.03309128      -1.20654497      -0.14837364        6 
C       0.20259117       1.81824117       0.42658480        6 
O       1.83573906      -1.81120416       0.76739622        8 
O       1.35916777      -1.02785049      -1.29043043        8 
O       1.30221380       1.55276268      -0.28270904        8 
O      -0.03920455       2.90197156       0.90942285        8 
C       2.21421453       2.64542901      -0.49696454        6 
C       3.12409681      -2.23210493       0.28504757        6 
C      -1.44651709      -1.40492090      -0.40056229        6 
C      -2.78648502      -1.40275860       0.37510686        6 
C      -3.19014656       0.10129020       0.28209509        6 
C      -1.94620284       0.67972923      -0.42142223        6 
O      -1.61534382      -0.34917009      -1.35335659        8 
H      -0.30584207      -1.30254252       1.49421856        1 
H      -1.14915169       0.81384824       1.59496985        1 
H       1.71674368       3.45479529      -1.03287405        1 
H       3.68736984      -1.37736761      -0.09274914        1 
H      -1.20547295      -2.32894616      -0.92077415        1 
H      -3.51512265      -2.04376097      -0.12246383        1 
H      -2.67194510      -1.75652691       1.40171337        1 
H      -4.06927315       0.23554907      -0.34994294        1 
H      -3.38816271       0.56413426       1.25008103        1 
H      -2.08141243       1.62743462      -0.93692558        1 
H       2.58990222       3.02133442       0.45591124        1 
H       3.02056434       2.22805974      -1.09551734        1 
H       3.01215768      -2.96605779      -0.51480109        1 
H       3.62600105      -2.67430869       1.14300205        1 
