29
Lattice="0.0 0.0 0.0 0.0 0.0 0.0 0.0 0.0 0.0" Properties=species:S:1:pos:R:3:Z:I:1 pbc="F F F"
C      -0.84365794       0.34315170      -0.76892583        6 
C       0.02226301      -0.94533611      -0.52772784        6 
C      -0.06104003       1.64071298      -0.64553400        6 
C       1.39923899      -0.70816167       0.05453748        6 
O      -0.46363292       2.40606696       0.37748461        8 
O       0.80432850       1.95476346      -1.42819945        8 
O       2.25928208      -1.65272621      -0.38640164        8 
O       1.69973128       0.14931953       0.84602624        8 
C       3.59835701      -1.57845438       0.13904269        6 
C       0.30316412       3.60304075       0.60587397        6 
C      -2.01227678       0.11228293       0.22434615        6 
C      -2.96934297      -0.94454201      -0.36879277        6 
C      -2.12853395      -2.24500739      -0.18366218        6 
C      -0.87238961      -1.68414577       0.52118057        6 
O      -1.38903943      -0.60589349       1.30186255        8 
H      -1.20052503       0.33218616      -1.80114405        1 
H       0.13226997      -1.53472504      -1.43624931        1 
H       4.05364166      -0.62264235      -0.12334196        1 
H       0.24441729       4.26621439      -0.25843714        1 
H      -2.47382883       1.01671120       0.60707907        1 
H      -3.89285985      -0.98469248       0.21019866        1 
H      -3.22871140      -0.74296268      -1.41002304        1 
H      -2.63635980      -2.95994614       0.46503991        1 
H      -1.89166163      -2.74714283      -1.12366600        1 
H      -0.33826193      -2.38390198       1.16074997        1 
H       3.58878646      -1.68794893       1.22456695        1 
H       4.13720892      -2.40120895      -0.32557095        1 
H       1.34436873       3.34188812       0.79728174        1 
H      -0.14390898       4.06920166       1.48099488        1 
