29
Lattice="0.0 0.0 0.0 0.0 0.0 0.0 0.0 0.0 0.0" Properties=species:S:1:pos:R:3:Z:I:1 pbc="F F F"
C      -0.64290057       0.56836579      -0.78940062        6 
C      -0.55442681      -0.97795331      -0.46582144        6 
C       0.65434201       1.33861473      -0.64734050        6 
C       0.73838132      -1.43715024       0.19305139        6 
O       0.96422789       1.56983513       0.64190036        8 
O       1.34810628       1.67689756      -1.57510992        8 
O       1.77238706      -1.29771333      -0.66152495        8 
O       0.84773737      -1.88112123       1.30712344        8 
C       3.07025732      -1.65720939      -0.15407786        6 
C       2.21101598       2.24489617       0.88510854        6 
C      -1.80479712       0.98838965       0.16157795        6 
C      -3.14135751       0.56726481      -0.48575381        6 
C      -3.08142406      -0.97962730      -0.29449620        6 
C      -1.75799916      -1.13405027       0.49073496        6 
O      -1.69113256       0.07679768       1.25771596        8 
H      -0.92786849       0.69746276      -1.83303103        1 
H      -0.66499072      -1.55172383      -1.38847801        1 
H       3.29947868      -1.07859033       0.74216843        1 
H       2.19532775       3.24555348       0.45001563        1 
H      -1.74977035       2.01157980       0.52499103        1 
H      -3.97494085       1.00204246       0.06768115        1 
H      -3.22770904       0.87509755      -1.52959808        1 
H      -3.92109022      -1.34051371       0.30039656        1 
H      -3.07353377      -1.53132847      -1.23708928        1 
H      -1.68614201      -1.99024261       1.15488750        1 
H       3.10326700      -2.72046791       0.08875099        1 
H       3.76799120      -1.42255145      -0.95442726        1 
H       3.03852652       1.68117437       0.45153796        1 
H       2.30435879       2.29724877       1.96725651        1 
