29
Lattice="0.0 0.0 0.0 0.0 0.0 0.0 0.0 0.0 0.0" Properties=species:S:1:pos:R:3:Z:I:1 pbc="F F F"
C      -0.46510531      -0.82188690       0.42292262        6 
C      -0.63066468       0.72529122       0.67669464        6 
C       0.85893562      -1.30511330      -0.13756034        6 
C       0.42407028       1.69080915       0.14667748        6 
O       1.70350706      -1.63445512       0.86330968        8 
O       1.11281564      -1.46252892      -1.30534923        8 
O       1.66625221       1.18184074       0.18185358        8 
O       0.18051320       2.82253011      -0.19354239        8 
C       2.72061837       2.03966338      -0.29616073        6 
C       3.01088001      -2.07254526       0.45929574        6 
C      -1.66150931      -1.08683794      -0.53783884        6 
C      -2.95169623      -1.19659543       0.29721260        6 
C      -3.13435808       0.28726989       0.73990778        6 
C      -1.98539887       0.97798525      -0.03110215        6 
O      -1.84044497       0.17000081      -1.20759226        8 
H      -0.60262224      -1.34287779       1.37151789        1 
H      -0.68768032       0.92322799       1.75113320        1 
H       2.56727982       2.26933119      -1.35111255        1 
H       3.50424952      -1.29689941      -0.12866815        1 
H      -1.48367340      -1.86904718      -1.27024977        1 
H      -3.77718084      -1.52545825      -0.33585808        1 
H      -2.86476320      -1.89314842       1.13356579        1 
H      -4.09946496       0.68508146       0.42420010        1 
H      -3.05072836       0.42547825       1.82015879        1 
H      -2.14613037       2.01524055      -0.30794975        1 
H       2.74642307       2.96597646       0.27860512        1 
H       3.63856243       1.47335235      -0.15687805        1 
H       2.94387734      -2.98398026      -0.13715212        1 
H       3.55503355      -2.25859553       1.38273063        1 
