29
Lattice="0.0 0.0 0.0 0.0 0.0 0.0 0.0 0.0 0.0" Properties=species:S:1:pos:R:3:Z:I:1 pbc="F F F"
C       0.54196358       1.00956224       0.52180243        6 
C       0.61089562      -0.55576164       0.74404157        6 
C      -0.69666574       1.58424453      -0.16259414        6 
C      -0.69570607      -1.32342110       0.67117821        6 
O      -1.82203993       1.22515513       0.47558429        8 
O      -0.67889897       2.31880407      -1.11901019        8 
O      -0.88825958      -1.88790008      -0.53847766        8 
O      -1.48987576      -1.39678314       1.57504000        8 
C      -2.12917419      -2.59482747      -0.71599721        6 
C      -3.05916100       1.72192031      -0.06682100        6 
C       1.77539760       1.20237878      -0.39021536        6 
C       3.08182804       0.91773602       0.38509643        6 
C       3.09749990      -0.64124719       0.40001917        6 
C       1.73744495      -0.94397369      -0.25907259        6 
O       1.65658598       0.07051320      -1.26846103        8 
H       0.63171031       1.52491826       1.48125584        1 
H       0.94749007      -0.72356936       1.76902047        1 
H      -2.21252837      -3.40814996       0.00627003        1 
H      -3.17100667       1.41059556      -1.10650419        1 
H       1.74848571       2.11907371      -0.97063115        1 
H       3.93941819       1.32170462      -0.15384377        1 
H       3.07664773       1.35678753       1.38522798        1 
H       3.90620912      -1.03462761      -0.21784197        1 
H       3.19508647      -1.06638658       1.40095851        1 
H       1.62730241      -1.92449501      -0.71268584        1 
H      -2.97304392      -1.91497106      -0.58784029        1 
H      -2.09899387      -2.98238112      -1.73183775        1 
H      -3.08807901       2.81140846      -0.01410955        1 
H      -3.83826046       1.28544829       0.55390731        1 
