29
Lattice="0.0 0.0 0.0 0.0 0.0 0.0 0.0 0.0 0.0" Properties=species:S:1:pos:R:3:Z:I:1 pbc="F F F"
C      -0.72437734      -0.45196570      -0.48701831        6 
C       0.78964606      -0.25084489      -0.73978453        6 
C      -1.60765277       0.77770556      -0.47317896        6 
C       1.40782879       0.94254873      -0.01650181        6 
O      -2.73055795       0.55298427       0.24571157        8 
O      -1.38500086       1.80178972      -1.06438898        8 
O       2.74505264       0.95481400      -0.23827294        8 
O       0.83939782       1.77637870       0.63524992        8 
C       3.47177521       2.03270365       0.38002723        6 
C      -3.67731629       1.63798480       0.28731089        6 
C      -0.73676939      -1.48575314       0.68590535        6 
C      -0.68032736      -2.88504306       0.04709397        6 
C       0.74059339      -2.82725075      -0.59925435        6 
C       1.30812258      -1.51926161       0.00982907        6 
O       0.58429820      -1.38606629       1.24632466        8 
H      -1.11083707      -0.97456483      -1.37205878        1 
H       1.06313751      -0.21959413      -1.79411844        1 
H       3.11598216       2.99402788       0.00609382        1 
H      -4.04666166       1.86045863      -0.71522669        1 
H      -1.48612402      -1.31458580       1.45152605        1 
H      -0.73168446      -3.65331333       0.82036441        1 
H      -1.48099873      -3.06348552      -0.67324231        1 
H       1.35180392      -3.68209503      -0.30826556        1 
H       0.71309573      -2.79238577      -1.69089397        1 
H       2.37689508      -1.51515492       0.20223823        1 
H       3.34969044       2.00159458       1.46374195        1 
H       4.51273077       1.87558072       0.10584089        1 
H      -3.21076867       2.53063040       0.70550599        1 
H      -4.48696614       1.29110150       0.92569102        1 
