29
Lattice="0.0 0.0 0.0 0.0 0.0 0.0 0.0 0.0 0.0" Properties=species:S:1:pos:R:3:Z:I:1 pbc="F F F"
C       0.16287777       1.02642475       0.30074596        6 
C       0.45961224      -0.42940885       0.74884535        6 
C      -1.24720977       1.44656821      -0.05595817        6 
C      -0.33677105      -1.49492754      -0.00656992        6 
O      -2.14349477       0.88818549       0.77744208        8 
O      -1.51233078       2.33915762      -0.82501856        8 
O       0.23598817      -2.70779473       0.17056734        8 
O      -1.36081841      -1.34026576      -0.61966858        8 
C      -0.42411162      -3.81760511      -0.46585545        6 
C      -3.52069280       1.23646601       0.55544748        6 
C       1.29315451       1.29919120      -0.73083904        6 
C       2.51064929       1.81288860       0.05509888        6 
C       2.84755232       0.53797445       0.89165085        6 
C       1.92918890      -0.52229183       0.23308868        6 
O       1.74087725      -0.01943881      -1.10459986        8 
H       0.34589485       1.65910670       1.17879083        1 
H       0.34673079      -0.59226411       1.82141853        1 
H      -1.43896387      -3.92979605      -0.08103278        1 
H      -3.83411107       0.89948282      -0.43387465        1 
H       0.98564259       1.86048280      -1.60791255        1 
H       3.32243952       2.06148585      -0.63011714        1 
H       2.29114379       2.69096193       0.66553337        1 
H       3.89534742       0.25330592       0.79144591        1 
H       2.63543902       0.65881880       1.95684819        1 
H       2.32669366      -1.53098072       0.19607341        1 
H      -0.46273637      -3.66716531      -1.54551075        1 
H       0.17740611      -4.69053677      -0.22157770        1 
H      -3.66463634       2.31490217       0.63623154        1 
H      -4.07979811       0.71329565       1.32812111        1 
