29
Lattice="0.0 0.0 0.0 0.0 0.0 0.0 0.0 0.0 0.0" Properties=species:S:1:pos:R:3:Z:I:1 pbc="F F F"
C      -0.68358585      -0.79533309       0.41424002        6 
C      -0.27512683       0.69232314       0.60341479        6 
C       0.35367863      -1.85705947       0.10870261        6 
C       0.96296914       1.15268379      -0.14328190        6 
O       1.58817246      -1.50203695       0.50204185        8 
O       0.06434564      -2.97278186      -0.25354500        8 
O       1.51970256       2.20482506       0.50599796        8 
O       1.37898754       0.72286302      -1.18685357        8 
C       2.65763974       2.80576025      -0.13826961        6 
C       2.61793016      -2.49405110       0.33664518        6 
C      -1.89365474      -0.69428543      -0.56192869        6 
C      -3.14620569      -0.35034697       0.26676831        6 
C      -2.79938051       1.10525794       0.71067063        6 
C      -1.50395080       1.36833279      -0.09821087        6 
O      -1.65976170       0.54144030      -1.25468677        8 
H      -1.06107182      -1.14738860       1.38170390        1 
H      -0.18740365       0.97947348       1.64953975        1 
H       3.46912339       2.08190259      -0.22900017        1 
H       2.72919103      -2.74645467      -0.71849156        1 
H      -1.98032042      -1.51620057      -1.26653074        1 
H      -4.03043088      -0.36689447      -0.37192484        1 
H      -3.31179186      -1.03456664       1.10100208        1 
H      -3.57936375       1.81140586       0.42320518        1 
H      -2.64010292       1.20121764       1.78699726        1 
H      -1.33982764       2.40102336      -0.39882615        1 
H       2.38849787       3.16685684      -1.13217751        1 
H       2.95207616       3.63265651       0.50432451        1 
H       2.37523537      -3.39523801       0.90180408        1 
H       3.52668619      -2.03249504       0.71600569        1 
