29
Lattice="0.0 0.0 0.0 0.0 0.0 0.0 0.0 0.0 0.0" Properties=species:S:1:pos:R:3:Z:I:1 pbc="F F F"
C      -0.54033454       0.56949627      -0.86382190        6 
C      -0.43374083      -0.86973460      -0.29315078        6 
C       0.43734488       1.62185290      -0.35258275        6 
C       0.91701259      -1.48524683      -0.00649358        6 
O       1.24184192       1.18659694       0.62803605        8 
O       0.39511570       2.77337028      -0.71837023        8 
O       1.85249499      -1.03817499      -0.86798018        8 
O       1.09283994      -2.41435429       0.74416986        8 
C       3.14608305      -1.66051214      -0.78081851        6 
C       2.07288927       2.17699040       1.25887148        6 
C      -1.91247933       0.95942695      -0.22559133        6 
C      -3.05260197       0.03246132      -0.71744182        6 
C      -2.85307553      -1.22186015       0.19125411        6 
C      -1.50449020      -0.86678375       0.84115104        6 
O      -1.69324654       0.53068801       1.12964825        8 
H      -0.54587156       0.61019084      -1.95238679        1 
H      -0.79480120      -1.54111086      -1.08315477        1 
H       3.57398028      -1.50931214       0.21130127        1 
H       1.45781681       2.97247731       1.68095487        1 
H      -2.12415372       2.02485223      -0.25227469        1 
H      -4.02378443       0.50040686      -0.55435160        1 
H      -2.96541412      -0.19323882      -1.78272517        1 
H      -3.63143103      -1.28636788       0.95293201        1 
H      -2.82890817      -2.16249646      -0.36245954        1 
H      -1.22435822      -1.40834207       1.73978805        1 
H       3.07096727      -2.73075324      -0.98008539        1 
H       3.75399183      -1.17096922      -1.53849979        1 
H       2.77061474       2.60274004       0.53624524        1 
H       2.60719854       1.64658298       2.04388989        1 
