29
Lattice="0.0 0.0 0.0 0.0 0.0 0.0 0.0 0.0 0.0" Properties=species:S:1:pos:R:3:Z:I:1 pbc="F F F"
C      -0.59887397      -0.89657019       0.52172495        6 
C      -0.58243491       0.65498062       0.77831622        6 
C       0.65971705      -1.63431116       0.09107517        6 
C       0.72221912       1.39914353       0.55425917        6 
O       1.79200614      -0.99985890       0.42766283        8 
O       0.63436514      -2.73721321      -0.40063069        8 
O       1.02681165       1.51035589      -0.75131501        8 
O       1.38385445       1.88162853       1.44153793        8 
C       2.26788560       2.16579712      -1.05564467        6 
C       3.02476898      -1.68006725       0.12558505        6 
C      -1.73849484      -1.02582513      -0.52438934        6 
C      -3.10365055      -0.82113754       0.16689263        6 
C      -3.08753094       0.72002656       0.40448728        6 
C      -1.71746612       1.09814798      -0.19967057        6 
O      -1.58689116       0.17672886      -1.28984652        8 
H      -0.88054989      -1.40480629       1.44928839        1 
H      -0.84776584       0.86147619       1.81413644        1 
H       2.26925648       3.18777612      -0.67325300        1 
H       3.12107037      -1.82344376      -0.95163452        1 
H      -1.64746209      -1.89712647      -1.16620120        1 
H      -3.91276554      -1.11157540      -0.50428125        1 
H      -3.20123467      -1.40044153       1.08729290        1 
H      -3.88924032       1.21565403      -0.14482818        1 
H      -3.17529415       0.99914446       1.45641547        1 
H      -1.62659505       2.11705167      -0.56783272        1 
H       3.10147006       1.61780614      -0.61231072        1 
H       2.33977664       2.16134076      -2.14105672        1 
H       3.05527807      -2.65032916       0.62276748        1 
H       3.81058505      -1.02941745       0.50203584        1 
