29
Lattice="0.0 0.0 0.0 0.0 0.0 0.0 0.0 0.0 0.0" Properties=species:S:1:pos:R:3:Z:I:1 pbc="F F F"
C      -0.53837036       0.70890417      -0.80409591        6 
C      -0.67506346      -0.82466903      -0.50163828        6 
C       0.77483372       1.44960370      -0.59186984        6 
C       0.51954647      -1.75075844      -0.37324478        6 
O       1.20348990       1.44133654       0.67502964        8 
O       1.28678113       2.11773754      -1.46324454        8 
O       1.60858814      -1.20471816       0.18292442        8 
O       0.46995696      -2.90266362      -0.74195746        8 
C       2.74808820      -2.07309478       0.33246692        6 
C       2.40725222       2.17710900       0.94124160        6 
C      -1.60865355       1.25237574       0.20022518        6 
C      -3.02785884       0.82200010      -0.24876351        6 
C      -3.07102447      -0.65671130       0.24782554        6 
C      -1.62325263      -0.82085581       0.75079041        6 
O      -1.37245297       0.44573174       1.35991434        8 
H      -0.81067547       0.91106519      -1.83830077        1 
H      -1.22021990      -1.27221944      -1.33293922        1 
H       2.50115684      -2.91589051       0.97935386        1 
H       2.28316502       3.23017722       0.68334861        1 
H      -1.49580856       2.30375523       0.45449838        1 
H      -3.78534460       1.43289906       0.24342321        1 
H      -3.16724606       0.91612584      -1.32750861        1 
H      -3.76752889      -0.77392385       1.07946397        1 
H      -3.34036626      -1.37266954      -0.53014406        1 
H      -1.44840939      -1.62271417       1.46428355        1 
H       3.07117408      -2.44766316      -0.63967973        1 
H       3.52099989      -1.45556673       0.78448140        1 
H       3.23890756       1.76536703       0.36619206        1 
H       2.58501982       2.06061330       2.00804069        1 
