29
Lattice="0.0 0.0 0.0 0.0 0.0 0.0 0.0 0.0 0.0" Properties=species:S:1:pos:R:3:Z:I:1 pbc="F F F"
C       0.58860261       0.88783651       0.45767482        6 
C       0.55339629      -0.63778534       0.80760169        6 
C      -0.67559519       1.66701490       0.14657263        6 
C      -0.70667336      -1.43388512       0.51309457        6 
O      -1.80693300       0.98820237       0.39018876        8 
O      -0.65311185       2.83544707      -0.16167852        8 
O      -1.03604595      -1.42660296      -0.78876788        8 
O      -1.28789335      -2.08815871       1.34706875        8 
C      -2.21240632      -2.16698722      -1.14855018        6 
C      -3.04239930       1.70833157       0.21792809        6 
C       1.67675739       0.94621824      -0.65733721        6 
C       3.06686836       0.86973227       0.00609200        6 
C       3.07793274      -0.61689929       0.48107179        6 
C       1.73383275      -1.12629022      -0.09438974        6 
O       1.56844781      -0.33879950      -1.27944786        8 
H       0.96541341       1.42307766       1.33532061        1 
H       0.75532630      -0.79888905       1.86498995        1 
H      -2.11295219      -3.21533231      -0.86322761        1 
H      -3.15250089       2.02655494      -0.81957122        1 
H       1.52939832       1.73771182      -1.38668301        1 
H       3.84364493       1.05216672      -0.73756925        1 
H       3.19351284       1.58962573       0.81657670        1 
H       3.91139187      -1.16962859       0.04599894        1 
H       3.13151311      -0.72215803       1.56643687        1 
H       1.70195127      -2.18342085      -0.34831478        1 
H      -3.09047447      -1.74430602      -0.65615534        1 
H      -2.29619016      -2.06913616      -2.22883288        1 
H      -3.06632229       2.58282703       0.86912963        1 
H      -3.82463924       1.00361492       0.49054313        1 
