29
Lattice="0.0 0.0 0.0 0.0 0.0 0.0 0.0 0.0 0.0" Properties=species:S:1:pos:R:3:Z:I:1 pbc="F F F"
C      -0.74282272       0.63818450       0.68445138        6 
C       0.79880888       0.36706078       0.67825734        6 
C      -1.61872524      -0.60313841       0.63282034        6 
C       1.22905799      -0.97628527       0.11287542        6 
O      -2.27488096      -0.73244709      -0.53116673        8 
O      -1.74392552      -1.35402389       1.56994815        8 
O       2.57603048      -1.07922140       0.16069722        8 
O       0.51525178      -1.84635338      -0.31514443        8 
C       3.13308771      -2.30500455      -0.35237679        6 
C      -3.03204820      -1.94566749      -0.69289870        6 
C      -0.87679991       1.68423800      -0.45919515        6 
C      -0.50591311       3.06764301       0.10828546        6 
C       1.02834302       2.88740518       0.32240180        6 
C       1.25888929       1.49043757      -0.30029633        6 
O       0.24832863       1.40295845      -1.31220401        8 
H      -0.99705725       1.09520644       1.64355686        1 
H       1.24502675       0.47400937       1.66754617        1 
H       2.74193498      -3.16055588       0.19991636        1 
H      -3.79314538      -2.03102104       0.08396823        1 
H      -1.79592763       1.62170034      -1.03247228        1 
H      -0.71198532       3.84276857      -0.63108692        1 
H      -1.04732614       3.31303602       1.02383104        1 
H       1.60017759       3.64274049      -0.21798914        1 
H       1.32652159       2.92785569       1.37249913        1 
H       2.24068168       1.32553292      -0.73555325        1 
H       2.89160606      -2.41794866      -1.41034526        1 
H       4.20791143      -2.21555861      -0.21162546        1 
H      -2.36146641      -2.80457662      -0.64444413        1 
H      -3.49110575      -1.87102466      -1.67635706        1 
