29
Lattice="0.0 0.0 0.0 0.0 0.0 0.0 0.0 0.0 0.0" Properties=species:S:1:pos:R:3:Z:I:1 pbc="F F F"
C      -0.52247115       0.56434020      -0.86731296        6 
C      -0.43005800      -0.86850162      -0.28455693        6 
C       0.45656697       1.62363824      -0.37689545        6 
C       0.89705647      -1.55255618      -0.03948863        6 
O       1.18243837       1.24430711       0.68314230        8 
O       0.46910305       2.74577325      -0.82846411        8 
O       1.90863661      -0.97673106      -0.71444181        8 
O       0.99165094      -2.62775001       0.50491591        8 
C       3.16673434      -1.67485281      -0.69008045        6 
C       2.00836836       2.25636395       1.28373563        6 
C      -1.89371875       0.96847727      -0.22893802        6 
C      -3.04075722       0.04197241      -0.70774631        6 
C      -2.84921452      -1.20137682       0.21837197        6 
C      -1.49626169      -0.84646919       0.85899567        6 
O      -1.67671116       0.55414605       1.13043246        8 
H      -0.53348850       0.59278599      -1.95599775        1 
H      -0.82606895      -1.53021902      -1.06592319        1 
H       3.53809444      -1.75257403       0.33275887        1 
H       1.39355970       3.08268412       1.64322856        1 
H      -2.10159820       2.03453989      -0.26696266        1 
H      -4.00844786       0.51887538      -0.54990815        1 
H      -2.95700966      -0.19882237      -1.76992028        1 
H      -3.62590055      -1.24863439       0.98313762        1 
H      -2.83301759      -2.15008090      -0.32137335        1 
H      -1.21813415      -1.37907570       1.76373465        1 
H       3.05600403      -2.67647988      -1.10842271        1 
H       3.84063870      -1.07531104      -1.29797845        1 
H       2.73432169       2.63319558       0.56175805        1 
H       2.51051555       1.76377877       2.11343902        1 
