29
Lattice="0.0 0.0 0.0 0.0 0.0 0.0 0.0 0.0 0.0" Properties=species:S:1:pos:R:3:Z:I:1 pbc="F F F"
C      -0.81215576       0.62113367      -0.69302901        6 
C      -0.22225839      -0.83373995      -0.67788345        6 
C       0.18875562       1.76140032      -0.58584369        6 
C       1.22982557      -0.96998639      -0.24350195        6 
O       0.40969895       2.13450820       0.68497026        8 
O       0.67665793       2.30440517      -1.54722724        8 
O       1.52027196      -2.26806510      -0.00687954        8 
O       2.04624947      -0.08842839      -0.16226314        8 
C       2.88068975      -2.55296436       0.37258065        6 
C       1.44435128       3.11491150       0.87638228        6 
C      -1.86473284       0.52147476       0.45114193        6 
C      -3.12667739      -0.16704702      -0.10326614        6 
C      -2.60846000      -1.62834878      -0.26817841        6 
C      -1.18798732      -1.51551070       0.33247154        6 
O      -1.32706595      -0.48836471       1.32275293        8 
H      -1.30328880       0.78501834      -1.65273269        1 
H      -0.28542205      -1.29450450      -1.66705001        1 
H       3.56855872      -2.24017245      -0.41425603        1 
H       1.21487516       4.02939177       0.32743922        1 
H      -2.02039304       1.43972436       1.00919428        1 
H      -3.93501677      -0.11356070       0.62762832        1 
H      -3.47842278       0.27684652      -1.03647598        1 
H      -3.20777623      -2.33367197       0.30889125        1 
H      -2.59601069      -1.96840408      -1.30604366        1 
H      -0.79501853      -2.42056105       0.78523734        1 
H       3.13193909      -2.03402834       1.29848329        1 
H       2.92140777      -3.63074749       0.51321174        1 
H       2.39710709       2.71015371       0.53234901        1 
H       1.47038268       3.30354703       1.94740716        1 
