29
Lattice="0.0 0.0 0.0 0.0 0.0 0.0 0.0 0.0 0.0" Properties=species:S:1:pos:R:3:Z:I:1 pbc="F F F"
C      -0.54730460       0.49499582      -0.83512309        6 
C      -0.48244165      -1.00635440      -0.32348441        6 
C       0.70946039       1.30902765      -0.55476140        6 
C       0.85120000      -1.42430785       0.26609692        6 
O       0.60159191       2.07332787       0.54352974        8 
O       1.69773696       1.27455006      -1.24930090        8 
O       1.72937095      -1.67329234      -0.72147639        8 
O       1.09574803      -1.56217964       1.43951080        8 
C       3.07615875      -1.98460294      -0.32239571        6 
C       1.76601058       2.83860226       0.90405023        6 
C      -1.81732511       0.97147230      -0.08598032        6 
C      -3.06856863       0.30859628      -0.71097330        6 
C      -2.98239981      -1.12879414      -0.11077356        6 
C      -1.66183067      -1.03124588       0.68036120        6 
O      -1.70096413       0.31101262       1.18066855        8 
H      -0.66723630       0.50850824      -1.91868679        1 
H      -0.66366488      -1.66882802      -1.17169507        1 
H       3.51575143      -1.13458736       0.20151305        1 
H       2.04862902       3.51146733       0.09313260        1 
H      -1.87777082       2.04538689       0.06503325        1 
H      -3.97242993       0.82383393      -0.38406285        1 
H      -3.04811465       0.32091686      -1.80276580        1 
H      -3.81228797      -1.32393295       0.56976621        1 
H      -2.97118173      -1.91508476      -0.86858650        1 
H      -1.53240128      -1.72602971       1.50555175        1 
H       3.09114695      -2.86143650       0.32639021        1 
H       3.61392502      -2.17702336      -1.24762642        1 
H       2.60006994       2.17205215       1.12834325        1 
H       1.47788548       3.39860013       1.79052249        1 
