29
Lattice="0.0 0.0 0.0 0.0 0.0 0.0 0.0 0.0 0.0" Properties=species:S:1:pos:R:3:Z:I:1 pbc="F F F"
C       0.60612294      -0.69544984      -0.71583761        6 
C       0.47560955       0.83980452      -0.38716344        6 
C      -0.42583836      -1.67407485      -0.15893532        6 
C      -0.85548581       1.35395759       0.12489542        6 
O      -1.66496482      -1.16168516      -0.09002621        8 
O      -0.16539476      -2.81350497       0.14106854        8 
O      -1.70590849       1.55458926      -0.90414273        8 
O      -1.10532704       1.65036238       1.26649409        8 
C      -3.02428253       2.00314353      -0.55083801        6 
C      -2.68886085      -2.03852658       0.42023779        6 
C       1.97428407      -0.98929087      -0.05030868        6 
C       3.11683397      -0.24371128      -0.77900837        6 
C       2.95282882       1.20076701      -0.21444395        6 
C       1.65776437       1.03623895       0.60276920        6 
O       1.83444324      -0.26603716       1.18277854        8 
H       0.62033245      -0.85684030      -1.79731140        1 
H       0.65446329       1.39129817      -1.31288569        1 
H      -3.50976187       1.27293248       0.09890850        1 
H      -2.43911190      -2.36228946       1.43091856        1 
H       2.14097189      -2.04225246       0.15316802        1 
H       4.08314850      -0.67239769      -0.51183355        1 
H       3.01613809      -0.29331065      -1.86566085        1 
H       3.77987472       1.46400112       0.44662401        1 
H       2.87752643       1.96617307      -0.98962820        1 
H       1.46997558       1.76557953       1.38517397        1 
H      -2.97930515       2.96462367      -0.03689254        1 
H      -3.56321062       2.09562155      -1.49127891        1 
H      -2.79662784      -2.91104737      -0.22540724        1 
H      -3.60115805      -1.44651942       0.42140727        1 
