29
Lattice="0.0 0.0 0.0 0.0 0.0 0.0 0.0 0.0 0.0" Properties=species:S:1:pos:R:3:Z:I:1 pbc="F F F"
C      -0.69071723       0.37052022      -0.69292465        6 
C      -0.05075922      -1.04065129      -0.42738963        6 
C       0.21552745       1.55350616      -0.39264285        6 
C       1.32094377      -1.02597607       0.22548996        6 
O      -0.47065114       2.61310580       0.07110677        8 
O       1.40349479       1.56974014      -0.60343559        8 
O       2.25781459      -1.48828608      -0.62814268        8 
O       1.55031146      -0.69616173       1.36121508        8 
C       3.61316911      -1.44716904      -0.14635436        6 
C       0.30760438       3.79307980       0.35395098        6 
C      -2.00093644       0.27197931       0.12986449        6 
C      -2.99236566      -0.66976924      -0.59098652        6 
C      -2.35970744      -2.06257216      -0.28795325        6 
C      -1.12029601      -1.64644826       0.53271219        6 
O      -1.59110382      -0.50577337       1.26210197        8 
H      -0.91467466       0.46769494      -1.76039585        1 
H       0.02298402      -1.60656432      -1.35427195        1 
H       3.89747892      -0.41659590       0.07059238        1 
H       0.78546797       4.16018202      -0.55547917        1 
H      -2.40236797       1.22484474       0.45883193        1 
H      -3.98541367      -0.57833691      -0.14894815        1 
H      -3.07727931      -0.45725247      -1.65893064        1 
H      -3.02422192      -2.67981354       0.31816486        1 
H      -2.09765950      -2.62373861      -1.18723488        1 
H      -0.73349141      -2.38765583       1.22760203        1 
H       3.71847886      -2.05116026       0.75627409        1 
H       4.22040187      -1.85234432      -0.95292318        1 
H       1.07116947       3.56864920       1.09926939        1 
H      -0.40303196       4.52165808       0.73721355        1 
