29
Lattice="0.0 0.0 0.0 0.0 0.0 0.0 0.0 0.0 0.0" Properties=species:S:1:pos:R:3:Z:I:1 pbc="F F F"
C       0.68656289      -0.80879874      -0.58892481        6 
C       0.55847594       0.74858247      -0.77775017        6 
C      -0.52726896      -1.71068208      -0.48072850        6 
C      -0.77754430       1.45318734      -0.59241343        6 
O      -1.48182972      -1.26004024       0.34420274        8 
O      -0.59136714      -2.77471305      -1.05399954        8 
O      -1.22400412       1.44053907       0.66888013        8 
O      -1.30273619       2.09214242      -1.47749629        8 
C      -2.45545513       2.13774692       0.91403178        6 
C      -2.62848375      -2.11326182       0.51881166        6 
C       1.63070927      -0.88853649       0.66205516        6 
C       3.07836532      -0.64770050       0.18640206        6 
C       3.01924720       0.87609910      -0.14159441        6 
C       1.57949028       1.22487203       0.30513104        6 
O       1.33862792       0.30963460       1.37986936        8 
H       1.21117099      -1.21106906      -1.45465500        1 
H       0.87679222       1.02061174      -1.78272597        1 
H      -2.36016994       3.19456260       0.65911183        1 
H      -2.32945325      -3.07039368       0.94845893        1 
H       1.47454908      -1.75465656       1.30147766        1 
H       3.77584167      -0.85005005       1.00063989        1 
H       3.35763806      -1.26829022      -0.66627593        1 
H       3.74596228       1.43872741       0.44568978        1 
H       3.19230163       1.09836999      -1.19623123        1 
H       1.42769926       2.24482379       0.65003165        1 
H      -3.26414126       1.70111956       0.32492787        1 
H      -2.64772415       2.01455636       1.97758987        1 
H      -3.12359367      -2.28749402      -0.43746472        1 
H      -3.28368423      -1.57520235       1.20026616        1 
