29
Lattice="0.0 0.0 0.0 0.0 0.0 0.0 0.0 0.0 0.0" Properties=species:S:1:pos:R:3:Z:I:1 pbc="F F F"
C      -0.20680285       1.00824060       0.48627811        6 
C       0.76138075      -0.21688182       0.60383617        6 
C      -1.53678389       0.73168544      -0.19679778        6 
C       0.16035029      -1.57651458       0.30014572        6 
O      -2.55515982       0.87078835       0.68015240        8 
O      -1.68694260       0.46477162      -1.36080870        8 
O       1.12805230      -2.48337112       0.05243849        8 
O      -1.01352376      -1.84939345       0.32439267        8 
C       0.68067802      -3.82888226      -0.20735522        6 
C      -3.86049541       0.54307602       0.17023481        6 
C       0.66473788       1.94853326      -0.39998123        6 
C       1.83531464       2.51293769       0.43775773        6 
C       2.78829899       1.27875508       0.49083902        6 
C       1.95599341       0.23544632      -0.28529574        6 
O       1.31835983       1.03149268      -1.28804444        8 
H      -0.41046073       1.43924474       1.46512379        1 
H       1.09604818      -0.30798241       1.64278853        1 
H       0.12933860      -4.21891248       0.64946949        1 
H      -3.88000202      -0.49844397      -0.15384667        1 
H       0.09890761       2.67403775      -0.97912972        1 
H       2.30105085       3.35446533      -0.07685203        1 
H       1.51515714       2.85338270       1.42460441        1 
H       3.72246677       1.47721550      -0.03650991        1 
H       3.03153180       0.96020301       1.50643670        1 
H       2.51034318      -0.57667557      -0.74500864        1 
H       0.03886542      -3.84896893      -1.08892527        1 
H       1.58632871      -4.40662874      -0.37744862        1 
H      -4.11873018       1.18949141      -0.67006518        1 
H      -4.54520806       0.70110093       1.00080596        1 
