29
Lattice="0.0 0.0 0.0 0.0 0.0 0.0 0.0 0.0 0.0" Properties=species:S:1:pos:R:3:Z:I:1 pbc="F F F"
C       0.40648317       1.00488314       0.30765544        6 
C       0.59792077      -0.46254675       0.87519901        6 
C      -0.97062693       1.24703913      -0.27241049        6 
C      -0.60759625      -1.35458419       0.61528454        6 
O      -1.73711814       1.92957968       0.60062069        8 
O      -1.35448001       0.87431262      -1.35399334        8 
O      -0.44255133      -2.17541507      -0.42738732        8 
O      -1.60326765      -1.32654829       1.30270086        8 
C      -1.57696715      -2.98361169      -0.79186096        6 
C      -3.11762258       2.10429669       0.22725759        6 
C       1.55768361       1.06503339      -0.73705404        6 
C       2.88167005       1.31899657       0.01318520        6 
C       3.09020182      -0.06545315       0.70237651        6 
C       1.89452587      -0.86875368       0.13525859        6 
O       1.70306666      -0.29283020      -1.16345065        8 
H       0.55751471       1.72591428       1.11004611        1 
H       0.71617163      -0.42881491       1.95848232        1 
H      -1.88570285      -3.61251467       0.04430676        1 
H      -3.60341900       1.13182453       0.13567787        1 
H       1.35551584       1.69896861      -1.59690914        1 
H       3.67892028       1.52949104      -0.70088197        1 
H       2.82326844       2.15182782       0.71688504        1 
H       4.03327041      -0.52308884       0.40181403        1 
H       3.07516077      -0.00866454       1.79291418        1 
H       2.04572893      -1.94031054       0.04071836        1 
H      -2.40634159      -2.34334518      -1.09485768        1 
H      -1.23934596      -3.58984034      -1.62914784        1 
H      -3.19451651       2.64151244      -0.71893584        1 
H      -3.56470056       2.67934819       1.03483400        1 
