29
Lattice="0.0 0.0 0.0 0.0 0.0 0.0 0.0 0.0 0.0" Properties=species:S:1:pos:R:3:Z:I:1 pbc="F F F"
C       0.69875144      -0.86586310      -0.59576921        6 
C       0.52574217       0.68922190      -0.82439803        6 
C      -0.59122037      -1.64987296      -0.46976664        6 
C      -0.88876571       1.19459430      -0.56036929        6 
O      -1.11586153      -1.56219769       0.76877099        8 
O      -1.10831315      -2.24900117      -1.37851461        8 
O      -0.94081342       2.14780638       0.38494613        8 
O      -1.85793490       0.81019736      -1.16914390        8 
C      -2.25222962       2.65395089       0.69742415        6 
C      -2.41071730      -2.16730627       0.94395428        6 
C       1.65663772      -0.87690467       0.63311383        6 
C       3.09322499      -0.65732205       0.12119811        6 
C       3.01069778       0.83715489      -0.31734416        6 
C       1.58933856       1.22048450       0.16452146        6 
O       1.38049372       0.36301099       1.29758420        8 
H       1.19142585      -1.29219716      -1.46943298        1 
H       0.74191315       0.93825006      -1.86538632        1 
H      -2.71271521       3.09772077      -0.18638003        1 
H      -2.36041014      -3.24118521       0.75756116        1 
H       1.50742676      -1.70422403       1.32165713        1 
H       3.80472855      -0.79147481       0.93739281        1 
H       3.36886524      -1.33464960      -0.68933384        1 
H       3.76256236       1.44593786       0.18583897        1 
H       3.13344171       0.97305819      -1.39422017        1 
H       1.45494822       2.25606774       0.45906666        1 
H      -2.88688103       1.84765189       1.06777198        1 
H      -2.09535822       3.40315831       1.46987981        1 
H      -3.12823315      -1.71454298       0.25823553        1 
H      -2.68366294      -1.97029284       1.97839454        1 
