29
Lattice="0.0 0.0 0.0 0.0 0.0 0.0 0.0 0.0 0.0" Properties=species:S:1:pos:R:3:Z:I:1 pbc="F F F"
C      -0.41295794      -0.68173897       0.49321362        6 
C      -0.58289478       0.87614613       0.60326344        6 
C       0.89936187      -1.19800110      -0.05485641        6 
C       0.53049460       1.70057868      -0.02776489        6 
O       1.22516231      -2.35998943       0.56181606        8 
O       1.55314746      -0.71838622      -0.94519342        8 
O       1.56113511       1.81849072       0.84268420        8 
O       0.53777905       2.15485256      -1.13944901        8 
C       2.75484475       2.42191521       0.30840905        6 
C       2.40985661      -3.01883789       0.07553198        6 
C      -1.62301617      -1.04976410      -0.43165564        6 
C      -2.90932992      -1.04058485       0.42002814        6 
C      -3.09105127       0.49195779       0.64745280        6 
C      -1.91243210       1.06167107      -0.17560395        6 
O      -1.77509012       0.11058579      -1.24343376        8 
H      -0.54564522      -1.13841501       1.47314763        1 
H      -0.66419386       1.16519377       1.65167788        1 
H       3.10573777       1.84730890      -0.54978425        1 
H       3.28056032      -2.37209988       0.19260727        1 
H      -1.46918292      -1.92617968      -1.05783272        1 
H      -3.73712899      -1.45467112      -0.15752861        1 
H      -2.81697518      -1.61386869       1.34429502        1 
H      -4.04181902       0.84408724       0.24563353        1 
H      -3.04260338       0.77989221       1.69989002        1 
H      -2.05194275       2.05464436      -0.59335943        1 
H       2.56076957       3.45094036       0.00200384        1 
H       3.48180321       2.39505229       1.11749429        1 
H       2.29641087      -3.27951852      -0.97794510        1 
H       2.51331203      -3.91486471       0.68357307        1 
