29
Lattice="0.0 0.0 0.0 0.0 0.0 0.0 0.0 0.0 0.0" Properties=species:S:1:pos:R:3:Z:I:1 pbc="F F F"
C      -0.36343634      -0.82350509       0.51027200        6 
C      -0.71504259       0.70409512       0.55120922        6 
C       0.93649443      -1.24420788      -0.15786799        6 
C       0.31554337       1.78468691       0.27910626        6 
O       1.78026576      -1.76979345       0.76418673        8 
O       1.19832833      -1.17198026      -1.32934737        8 
O       1.54452511       1.32660200       0.01237131        8 
O       0.04923817       2.95910123       0.38999910        8 
C       2.56452471       2.31531380      -0.22318712        6 
C       3.05636791      -2.20391241       0.26387087        6 
C      -1.56530976      -1.33589314      -0.34754675        6 
C      -2.87435466      -1.25657422       0.47365210        6 
C      -3.19452186       0.26758055       0.38628662        6 
C      -1.96056752       0.77341687      -0.38811343        6 
O      -1.72197954      -0.28958113      -1.31411682        8 
H      -0.37130601      -1.23976172       1.51637636        1 
H      -1.03854413       0.94441051       1.56748413        1 
H       2.28553273       2.95306698      -1.06242598        1 
H       3.59833549      -1.36235594      -0.17083065        1 
H      -1.38382339      -2.27842136      -0.85835178        1 
H      -3.65433939      -1.85704826       0.00407992        1 
H      -2.74482822      -1.61243395       1.49794717        1 
H      -4.09878003       0.44947555      -0.19639067        1 
H      -3.31398550       0.74667678       1.35985091        1 
H      -2.07526758       1.71802481      -0.91286627        1 
H       2.71112271       2.92931780       0.66658246        1 
H       3.46361530       1.74940943      -0.45561570        1 
H       2.92872446      -2.97644044      -0.49601989        1 
H       3.58893779      -2.59860551       1.12655446        1 
