29
Lattice="0.0 0.0 0.0 0.0 0.0 0.0 0.0 0.0 0.0" Properties=species:S:1:pos:R:3:Z:I:1 pbc="F F F"
C      -0.34604213      -0.70510228       0.56097902        6 
C      -0.69313035       0.81721861       0.50397963        6 
C       0.93140398      -1.10977410      -0.14565798        6 
C       0.40938491       1.76503399       0.06953290        6 
O       1.52074781      -2.13562852       0.51166617        8 
O       1.34737923      -0.65983155      -1.18288372        8 
O       1.55387440       1.49269733       0.73009823        8 
O       0.26428363       2.71235931      -0.66026408        8 
C       2.69308459       2.30104822       0.38256398        6 
C       2.69876625      -2.68354903      -0.10900290        6 
C      -1.56821185      -1.28080672      -0.22739569        6 
C      -2.85055426      -1.13635475       0.62660760        6 
C      -3.16810583       0.37960406       0.43715940        6 
C      -1.95255825       0.82693289      -0.40062233        6 
O      -1.74711582      -0.30823622      -1.25809268        8 
H      -0.31018721      -1.08334479       1.58096468        1 
H      -0.95014569       1.15179381       1.51433895        1 
H       2.93933540       2.16073619      -0.67080723        1 
H       3.47671917      -1.92233005      -0.18491165        1 
H      -1.40246668      -2.26251371      -0.66665107        1 
H      -3.64607160      -1.76551137       0.22532278        1 
H      -2.68983911      -1.41811997       1.66923041        1 
H      -4.08722212       0.52192350      -0.13285689        1 
H      -3.26232415       0.92329214       1.37941769        1 
H      -2.06835092       1.72766236      -0.99609887        1 
H       2.48753833       3.35533644       0.57234897        1 
H       3.50357304       1.94745580       1.01616532        1 
H       2.46584873      -3.05773310      -1.10714525        1 
H       3.01815246      -3.49503051       0.54108601        1 
