29
Lattice="0.0 0.0 0.0 0.0 0.0 0.0 0.0 0.0 0.0" Properties=species:S:1:pos:R:3:Z:I:1 pbc="F F F"
C      -0.41052249       0.73426313       0.49979519        6 
C       0.96594195       0.07152475       0.81692817        6 
C      -1.61710549      -0.16194764       0.30863330        6 
C       1.15668653      -1.41323334       0.53996943        6 
O      -2.72396051       0.61366544       0.20389725        8 
O      -1.64910167      -1.36346267       0.24097776        8 
O       0.90957157      -1.74796032      -0.73146697        8 
O       1.61899206      -2.17332907       1.36026660        8 
C       1.02717340      -3.14281413      -1.05483271        6 
C      -3.96737253      -0.08192210      -0.00783247        6 
C      -0.05423972       1.67989174      -0.69693039        6 
C       0.60354987       2.94952214      -0.11794696        6 
C       1.97342882       2.36824064       0.35578798        6 
C       1.87209931       0.90776987      -0.14587022        6 
O       1.05282253       1.02343231      -1.31583644        8 
H      -0.69239651       1.36224170       1.34961015        1 
H       1.24103298       0.21189965       1.86053195        1 
H       2.03001572      -3.50950164      -0.83091496        1 
H      -4.16349235      -0.77093641       0.81487009        1 
H      -0.85392186       1.83330814      -1.41653330        1 
H       0.74239823       3.68886795      -0.90805533        1 
H       0.02068156       3.40756785       0.68286114        1 
H       2.80995245       2.87833598      -0.12344105        1 
H       2.11673526       2.42654261       1.43661246        1 
H       2.81562735       0.43166361      -0.40241787        1 
H       0.29292838      -3.71736490      -0.48773737        1 
H       0.82151389      -3.20884462      -2.12096229        1 
H      -3.93680459      -0.64040805      -0.94467406        1 
H      -4.72923789       0.69339007      -0.04907004        1 
