29
Lattice="0.0 0.0 0.0 0.0 0.0 0.0 0.0 0.0 0.0" Properties=species:S:1:pos:R:3:Z:I:1 pbc="F F F"
C      -0.52581354       0.43070695      -0.80477293        6 
C      -0.29338501      -1.04990949      -0.30966271        6 
C       0.55001472       1.41706162      -0.35143106        6 
C       1.08174544      -1.35183226       0.25423802        6 
O       0.03421964       2.53483495       0.18616935        8 
O       1.73493314       1.24808171      -0.51161554        8 
O       1.93478522      -1.65690453      -0.74030701        8 
O       1.36279278      -1.39464066       1.42657089        8 
C       3.31234192      -1.82547410      -0.36175497        6 
C       0.98660924       3.51644899       0.63992440        6 
C      -1.91218208       0.69883423      -0.17225724        6 
C      -2.99377354      -0.20630860      -0.81199024        6 
C      -2.73534130      -1.56177974      -0.08500700        6 
C      -1.45936312      -1.21409531       0.70303786        6 
O      -1.73083098       0.12943876       1.13448677        8 
H      -0.53310225       0.47174246      -1.89671371        1 
H      -0.42008365      -1.71902953      -1.16279464        1 
H       3.70425746      -0.88126529       0.01872322        1 
H       1.60006713       3.86561298      -0.19179501        1 
H      -2.17157898       1.74820446      -0.08404093        1 
H      -3.99004553       0.18113812      -0.59636243        1 
H      -2.88880099      -0.27401496      -1.89752984        1 
H      -3.54660752      -1.80144365       0.60392256        1 
H      -2.60286376      -2.40448585      -0.76635384        1 
H      -1.22248810      -1.83400667       1.56301139        1 
H       3.41036591      -2.60055372       0.39948921        1 
H       3.83062626      -2.11354366      -1.27376144        1 
H       1.62904749       3.08731084       1.40947175        1 
H       0.38920770       4.32870111       1.04737684        1 
