29
Lattice="0.0 0.0 0.0 0.0 0.0 0.0 0.0 0.0 0.0" Properties=species:S:1:pos:R:3:Z:I:1 pbc="F F F"
C       0.80454664       0.08424315      -0.47875460        6 
C      -0.62340718       0.69815674      -0.57198887        6 
C       0.93587424      -1.39944394      -0.20600151        6 
C      -1.74439376      -0.04034686       0.14869581        6 
O       2.24087787      -1.75048918      -0.32158267        8 
O       0.06734042      -2.17994936       0.08225014        8 
O      -2.76675824      -0.27179075      -0.71341027        8 
O      -1.76923083      -0.35662775       1.30669052        8 
C      -3.89247165      -0.97994254      -0.16280111        6 
C       2.54820821      -3.13269084      -0.05843928        6 
C       1.52065032       1.05296645       0.52107595        6 
C       1.98551198       2.28753853      -0.27723254        6 
C       0.60639135       2.94137225      -0.60767902        6 
C      -0.36070185       2.03578651       0.19545834        6 
O       0.44498587       1.58878906       1.29313255        8 
H       1.28465970       0.20328085      -1.45457328        1 
H      -0.92340687       0.86228060      -1.60522390        1 
H      -3.57131934      -1.94012110       0.24285713        1 
H       2.01748416      -3.78162718      -0.75687870        1 
H       2.25594962       0.58559813       1.17006075        1 
H       2.58714710       2.93730761       0.36023047        1 
H       2.57279113       2.03205304      -1.16106869        1 
H       0.55407462       3.96966407      -0.24809170        1 
H       0.37824895       2.94590235      -1.67563406        1 
H      -1.25674989       2.52264521       0.57356386        1 
H      -4.36369389      -0.39500671       0.62918522        1 
H      -4.58078317      -1.12197260      -0.99342906        1 
H       2.26719694      -3.39863453       0.96180437        1 
H       3.62371825      -3.22105408      -0.19535261        1 
