29
Lattice="0.0 0.0 0.0 0.0 0.0 0.0 0.0 0.0 0.0" Properties=species:S:1:pos:R:3:Z:I:1 pbc="F F F"
C       0.20551069      -0.82301094       0.56918116        6 
C      -0.99424426       0.16292440       0.77349458        6 
C       1.57694860      -0.22943667       0.30883355        6 
C      -0.74251527       1.64749433       0.54841612        6 
O       2.46770008      -1.23202672       0.12947218        8 
O       1.87908661       0.93571106       0.27194020        8 
O      -0.54553791       1.94917471      -0.74280597        8 
O      -0.82451740       2.47009060       1.43009532        8 
C      -0.20746806       3.31724135      -1.02492171        6 
C       3.82805655      -0.83402953      -0.12802543        6 
C      -0.33120308      -1.74155521      -0.57152801        6 
C      -1.36402629      -2.72321923       0.02376216        6 
C      -2.56944663      -1.76424406       0.27022497        6 
C      -2.00230782      -0.42902437      -0.26259785        6 
O      -1.14928135      -0.85203518      -1.33495088        8 
H       0.33542614      -1.42227918       1.47467362        1 
H      -1.37465741       0.09011616       1.79111142        1 
H      -0.99175356       3.99054857      -0.67573343        1 
H       4.21863966      -0.25115769       0.70728721        1 
H       0.43796240      -2.18020706      -1.20070194        1 
H      -1.61444571      -3.49265850      -0.70790808        1 
H      -1.00700182      -3.21627113       0.92964506        1 
H      -3.44068835      -2.06235988      -0.31451373        1 
H      -2.86958434      -1.70437352       1.31817792        1 
H      -2.73639832       0.28021215      -0.63679040        1 
H       0.73501023       3.56943256      -0.53659165        1 
H      -0.10540822       3.37199508      -2.10658397        1 
H       3.88277518      -0.23777739      -1.03997204        1 
H       4.38375394      -1.76204198      -0.24202751        1 
