29
Lattice="0.0 0.0 0.0 0.0 0.0 0.0 0.0 0.0 0.0" Properties=species:S:1:pos:R:3:Z:I:1 pbc="F F F"
C      -0.94763282      -0.04963130      -0.83414758        6 
C       0.41064217      -0.70234730      -0.45215277        6 
C      -1.22133505       1.41035891      -0.49749063        6 
C       1.64675349       0.16680077      -0.34402891        6 
O      -0.77661713       1.77716732       0.70706095        8 
O      -1.90779478       2.11276811      -1.20583195        8 
O       2.72885126      -0.63888175      -0.19734536        8 
O       1.72143345       1.36754400      -0.36709804        8 
C       3.99852396       0.02581846      -0.06007923        6 
C      -1.01791165       3.14129717       1.08672286        6 
C      -1.88599633      -0.92826446       0.06077966        6 
C      -1.86281953      -2.40617448      -0.41009451        6 
C      -0.53530605      -2.91556193       0.23604646        6 
C       0.02540622      -1.58956100       0.78439913        6 
O      -1.15611594      -0.96646527       1.29406793        8 
H      -1.17082380      -0.16088501      -1.89364770        1 
H       0.67272566      -1.38957627      -1.26255548        1 
H       4.20869560       0.63232421      -0.94235115        1 
H      -2.08764739       3.35562603       1.09602255        1 
H      -2.87350406      -0.50391358       0.22727179        1 
H      -2.72978526      -2.94319663      -0.02404175        1 
H      -1.87098745      -2.49244401      -1.49857604        1 
H      -0.73599981      -3.60351974       1.05885499        1 
H       0.13561590      -3.40760468      -0.47011218        1 
H       0.78138783      -1.66145975       1.56146460        1 
H       4.00133638       0.66548780       0.82380047        1 
H       4.73265369      -0.77048069       0.04112563        1 
H      -0.51719899       3.81707951       0.39168184        1 
H      -0.59663511       3.24000079       2.08459156        1 
