29
Lattice="0.0 0.0 0.0 0.0 0.0 0.0 0.0 0.0 0.0" Properties=species:S:1:pos:R:3:Z:I:1 pbc="F F F"
C      -0.63320798       0.53811035      -0.86535247        6 
C      -0.35542287      -0.93002309      -0.35060742        6 
C       0.49345994       1.53954995      -0.66555623        6 
C       1.03364814      -1.19075455       0.19766796        6 
O       0.59744941       1.96144924       0.59724712        8 
O       1.17838198       1.95141813      -1.57561984        8 
O       1.71428729      -2.01434257      -0.63431321        8 
O       1.49709116      -0.75469031       1.22068183        8 
C       3.06230071      -2.33334909      -0.24061804        6 
C       1.68053715       2.86172680       0.88651171        6 
C      -1.91644862       0.86895789      -0.04771117        6 
C      -3.10546940       0.05270982      -0.60863999        6 
C      -2.81230810      -1.35784662      -0.00940192        6 
C      -1.47867850      -1.08573689       0.71966891        6 
O      -1.66144744       0.24187535       1.21281606        8 
H      -0.81994042       0.52361774      -1.93808753        1 
H      -0.50502902      -1.62583979      -1.17495067        1 
H       3.66866491      -1.42753075      -0.19559382        1 
H       1.60092447       3.76671851       0.28224094        1 
H      -2.09800946       1.93062588       0.09996484        1 
H      -4.04922988       0.45552226      -0.23862285        1 
H      -3.14116117       0.05905387      -1.69988159        1 
H      -3.57779178      -1.64982338       0.71085692        1 
H      -2.73412134      -2.14310961      -0.76378869        1 
H      -1.23326263      -1.75377990       1.54178703        1 
H       3.06934718      -2.82001706       0.73584210        1 
H       3.43665188      -3.00627818      -1.00872933        1 
H       2.63505216       2.37300557       0.68618742        1 
H       1.58659103       3.09101298       1.94513269        1 
