29
Lattice="0.0 0.0 0.0 0.0 0.0 0.0 0.0 0.0 0.0" Properties=species:S:1:pos:R:3:Z:I:1 pbc="F F F"
C       0.50327856       0.89435414       0.36109486        6 
C       0.54423709      -0.58508508       0.83926541        6 
C      -0.81620006       1.57599045       0.06684124        6 
C      -0.57178581      -1.52693709       0.42419314        6 
O      -1.84991493       0.98576978       0.69516504        8 
O      -0.90265287       2.63745727      -0.50310447        8 
O      -1.10347441      -1.22855048      -0.77081346        8 
O      -0.86071154      -2.51620907       1.05729525        8 
C      -2.09229970      -2.14235561      -1.27407824        6 
C      -3.12768067       1.63755766       0.57616179        6 
C       1.58261071       0.92332361      -0.76256162        6 
C       2.95883314       1.08232009      -0.08851268        6 
C       3.07948845      -0.29866023       0.63024624        6 
C       1.83597531      -1.04039931       0.07823428        6 
O       1.63821857      -0.44081898      -1.20832227        8 
H       0.87005002       1.50834479       1.19262732        1 
H       0.64697556      -0.67815327       1.91868853        1 
H      -1.66071744      -3.13532113      -1.40921739        1 
H      -3.43809020       1.67364042      -0.46925241        1 
H       1.35831239       1.58780127      -1.59187591        1 
H       3.73392462       1.20148551      -0.84678281        1 
H       3.00833470       1.93423610       0.59231206        1 
H       3.99273311      -0.82199041       0.34547195        1 
H       3.06367018      -0.22007933       1.71930827        1 
H       1.93899868      -2.11848370      -0.02422958        1 
H      -2.93670614      -2.20926034      -0.58595703        1 
H      -2.40612310      -1.72932519      -2.23018114        1 
H      -3.07735851       2.65307939       0.97136526        1 
H      -3.81615341       1.03010883       1.15937129        1 
