29
Lattice="0.0 0.0 0.0 0.0 0.0 0.0 0.0 0.0 0.0" Properties=species:S:1:pos:R:3:Z:I:1 pbc="F F F"
C      -0.67699618       0.60462747      -0.72946094        6 
C      -0.46170109      -0.93150414      -0.46047372        6 
C       0.43518869       1.60486589      -0.48120410        6 
C       0.87335148      -1.35484316       0.13084485        6 
O       1.25907862       1.25534782       0.51378122        8 
O       0.52116367       2.64562983      -1.09175373        8 
O       1.78319350      -1.50799887      -0.86085976        8 
O       1.12298366      -1.51997156       1.29529150        8 
C       3.12064443      -1.82841305      -0.43883021        6 
C       2.29950761       2.18893764       0.85443358        6 
C      -1.90209814       0.89102759       0.20466474        6 
C      -3.17839139       0.32278850      -0.45334840        6 
C      -2.96918676      -1.20527716      -0.21988025        6 
C      -1.62179282      -1.21023290       0.53472579        6 
O      -1.68053404       0.00403001       1.29856275        8 
H      -0.95790628       0.76330679      -1.76991378        1 
H      -0.58455356      -1.47732791      -1.39719907        1 
H       3.51544072      -1.03412849       0.19700526        1 
H       1.86806255       3.14424385       1.15582108        1 
H      -1.96762192       1.91770617       0.55832312        1 
H      -4.06326032       0.68704696       0.07024392        1 
H      -3.26807112       0.59652796      -1.50597746        1 
H      -3.75622100      -1.62144198       0.41041774        1 
H      -2.93493049      -1.78424865      -1.14501133        1 
H      -1.44602685      -2.04879788       1.20249612        1 
H       3.13292939      -2.76890486       0.11395913        1 
H       3.70312576      -1.91310170      -1.35363397        1 
H       2.96261966       2.34605694       0.00213790        1 
H       2.83335231       1.72958647       1.68305048        1 
