29
Lattice="0.0 0.0 0.0 0.0 0.0 0.0 0.0 0.0 0.0" Properties=species:S:1:pos:R:3:Z:I:1 pbc="F F F"
C       0.41353976       1.01227552       0.29664816        6 
C       0.47081151      -0.48376437       0.81304337        6 
C      -0.91011438       1.52224309      -0.24148003        6 
C      -0.71272268      -1.36115893       0.39960000        6 
O      -1.80355547       1.63075254       0.75361023        8 
O      -1.10771845       1.89977574      -1.37143140        8 
O      -0.34744452      -2.38416449      -0.39393066        8 
O      -1.84930950      -1.19075434       0.76870861        8 
C      -1.40526007      -3.25428021      -0.83622017        6 
C      -3.13533314       2.02916849       0.38367748        6 
C       1.59158273       1.03706736      -0.71109384        6 
C       2.89994983       1.22985454       0.07786638        6 
C       2.99599861      -0.14724090       0.80374619        6 
C       1.81038285      -0.91449960       0.16764251        6 
O       1.69860143      -0.32908515      -1.13952998        8 
H       0.62622581       1.66226483       1.14955467        1 
H       0.48900596      -0.50362392       1.90433809        1 
H      -1.90436558      -3.71542188       0.01742579        1 
H      -3.57478750       1.28453660      -0.28144527        1 
H       1.42997659       1.68231152      -1.56978849        1 
H       3.73311510       1.37175508      -0.61197409        1 
H       2.87033195       2.08187630       0.76012499        1 
H       3.93735786      -0.65260840       0.58555254        1 
H       2.90268382      -0.06764154       1.88935196        1 
H       1.94310029      -1.98748491       0.07804094        1 
H      -2.13517423      -2.69352424      -1.42157460        1 
H      -0.91878279      -4.00717431      -1.45217785        1 
H      -3.12286163       3.00151786      -0.11087746        1 
H      -3.69168553       2.07549436       1.31681127        1 
