29
Lattice="0.0 0.0 0.0 0.0 0.0 0.0 0.0 0.0 0.0" Properties=species:S:1:pos:R:3:Z:I:1 pbc="F F F"
C       0.29160533       0.96847133       0.38657807        6 
C       0.68471725      -0.48236858       0.87071128        6 
C      -1.10802263       1.08696559      -0.17895974        6 
C      -0.43431668      -1.49507810       0.68074558        6 
O      -1.81484827       2.02379875       0.48742125        8 
O      -1.54629292       0.46043479      -1.11207506        8 
O      -0.26788544      -2.27022651      -0.39520568        8 
O      -1.35820966      -1.59710490       1.45544609        8 
C      -1.35626372      -3.15685770      -0.71529870        6 
C      -3.17646525       2.21082484       0.05317905        6 
C       1.39116315       1.21795026      -0.69067471        6 
C       2.71431671       1.55344165       0.03079191        6 
C       3.11601431       0.14532896       0.56912152        6 
C       1.96052574      -0.72548215       0.02338536        6 
O       1.63891438      -0.08490445      -1.21920328        8 
H       0.37703632       1.67535191       1.20993095        1 
H       0.88947960      -0.46609601       1.94160654        1 
H      -1.54470444      -3.84823968       0.10722854        1 
H      -3.73534127       1.28010929       0.15913437        1 
H       1.09762494       1.89163066      -1.49275499        1 
H       3.44751043       1.92975098      -0.68408204        1 
H       2.58995450       2.30005130       0.81716478        1 
H       4.06754410      -0.18428246       0.15016453        1 
H       3.19405609       0.10551749       1.65769143        1 
H       2.19509468      -1.77083572      -0.15409331        1 
H      -2.25496561      -2.57380786      -0.92009176        1 
H      -1.03743905      -3.69221281      -1.60657924        1 
H      -3.20444587       2.53309710      -0.98886594        1 
H      -3.58406725       2.98034452       0.70471473        1 
