29
Lattice="0.0 0.0 0.0 0.0 0.0 0.0 0.0 0.0 0.0" Properties=species:S:1:pos:R:3:Z:I:1 pbc="F F F"
C      -0.34665386      -0.78146609       0.57766831        6 
C      -0.80084639       0.69220335       0.80448300        6 
C       1.14290667      -1.05038832       0.65749319        6 
C       0.08604907       1.81994571       0.28595593        6 
O       1.57454598      -1.85651111      -0.33249181        8 
O       1.85049749      -0.63875517       1.54316751        8 
O       1.19658943       1.40214483      -0.33456665        8 
O      -0.25295987       2.97897834       0.33868646        8 
C       2.01200436       2.42090341      -0.94054025        6 
C       2.97533784      -2.18895685      -0.30586607        6 
C      -1.16373780      -1.18499837      -0.68870773        6 
C      -2.54635600      -1.66107076      -0.20722921        6 
C      -3.12062856      -0.31920358       0.34525385        6 
C      -2.05107665       0.69550412      -0.12880812        6 
O      -1.49647368       0.07393090      -1.30127611        8 
H      -0.72767260      -1.35929685       1.42763552        1 
H      -1.04388799       0.91056449       1.84400596        1 
H       1.44399059       2.95367103      -1.70441539        1 
H       3.22209185      -2.73117263       0.60818036        1 
H      -0.63964026      -1.81749018      -1.39714304        1 
H      -3.13303925      -2.02369673      -1.05257332        1 
H      -2.49299758      -2.45368085       0.54213649        1 
H      -4.09009278      -0.08446075      -0.09503071        1 
H      -3.23681006      -0.31693214       1.43133066        1 
H      -2.41529700       1.69068159      -0.36750153        1 
H       2.35912638       3.12783050      -0.18598995        1 
H       2.85151371       1.89116134      -1.38499128        1 
H       3.57940273      -1.28232833      -0.35895134        1 
H       3.14157202      -2.81405393      -1.18040975        1 
