29
Lattice="0.0 0.0 0.0 0.0 0.0 0.0 0.0 0.0 0.0" Properties=species:S:1:pos:R:3:Z:I:1 pbc="F F F"
C       0.64941256      -0.79492785      -0.71273038        6 
C       0.64619540       0.79150681      -0.72527352        6 
C      -0.72241462      -1.43127834      -0.58366770        6 
C      -0.72941102       1.42055828      -0.59662088        6 
O      -1.10612577      -1.59241694       0.69501800        8 
O      -1.39915325      -1.75316538      -1.53022898        8 
O      -1.09266438       1.62797373       0.68104092        8 
O      -1.42552356       1.69857346      -1.54316478        8 
C      -2.41136896       2.16643336       0.88335941        6 
C      -2.41680037      -2.15126381       0.89562472        6 
C       1.63855593      -1.06484588       0.45282533        6 
C       3.07613584      -0.77619644      -0.03562423        6 
C       3.07521863       0.78348071      -0.05342961        6 
C       1.63854925       1.08257510       0.43166462        6 
O       1.38839122       0.01765088       1.35677273        8 
H       1.03682467      -1.15631540      -1.66497281        1 
H       1.02725767       1.13921382      -1.68517919        1 
H      -2.50372487       3.14562976       0.41089155        1 
H      -2.47868476      -3.15059000       0.46175994        1 
H       1.49072845      -2.01190421       0.96520637        1 
H       3.80150660      -1.16619745       0.67962300        1 
H       3.28742139      -1.22074216      -1.01007895        1 
H       3.80199230       1.19021800       0.65090355        1 
H       3.28356604       1.20574985      -1.03834508        1 
H       1.49215722       2.03915907       0.92616154        1 
H      -3.16230833       1.49530848       0.46327057        1 
H      -2.52741571       2.24625510       1.96177189        1 
H      -3.17482272      -1.51558610       0.43525005        1 
H      -2.55089693      -2.19076025       1.97416323        1 
