29
Lattice="0.0 0.0 0.0 0.0 0.0 0.0 0.0 0.0 0.0" Properties=species:S:1:pos:R:3:Z:I:1 pbc="F F F"
C       0.71913863      -0.66529325      -0.58392868        6 
C       0.38503763       0.86635456      -0.48895089        6 
C      -0.31095522      -1.74804966      -0.31866255        6 
C      -0.92886056       1.27638552       0.15669971        6 
O      -1.49982806      -1.30266142       0.10329677        8 
O      -0.07156330      -2.91419263      -0.53244389        8 
O      -1.79934672       1.69423294      -0.79534046        8 
O      -1.18817677       1.26014263       1.33070221        8 
C      -3.10843437       2.05991031      -0.32754151        6 
C      -2.50660487      -2.29836109       0.36634967        6 
C       1.96200426      -0.77599948       0.35511963        6 
C       3.20098560      -0.23736082      -0.38857844        6 
C       2.89175547       1.29134933      -0.39507748        6 
C       1.57212700       1.33334254       0.41061262        6 
O       1.71529578       0.24060728       1.32804631        8 
H       1.03484862      -0.88208540      -1.60695760        1 
H       0.41981274       1.31471203      -1.48099872        1 
H      -3.58767306       1.20720321       0.15663655        1 
H      -2.15828810      -2.99518424       1.12940255        1 
H       2.07417782      -1.74442352       0.83554814        1 
H       4.10279706      -0.45678741       0.18488065        1 
H       3.31848276      -0.66598575      -1.38553209        1 
H       3.66881446       1.85916528       0.11783212        1 
H       2.77820837       1.70333481      -1.39995588        1 
H       1.38198506       2.24898096       0.96475461        1 
H      -3.04784813       2.88617466       0.38253376        1 
H      -3.66293287       2.35788767      -1.21501272        1 
H      -2.74480989      -2.84805416      -0.54533384        1 
H      -3.37176606      -1.74377726       0.72227139        1 
