29
Lattice="0.0 0.0 0.0 0.0 0.0 0.0 0.0 0.0 0.0" Properties=species:S:1:pos:R:3:Z:I:1 pbc="F F F"
C       0.20969288       0.83397364       0.64347356        6 
C       0.82727268      -0.60734502       0.71732131        6 
C      -1.26262781       0.93231465       0.28133664        6 
C      -0.13333652      -1.77740649       0.56346110        6 
O      -1.59248421       2.22236278       0.05050854        8 
O      -2.06165561       0.03208205       0.24065799        8 
O      -0.38480257      -2.06734151      -0.72323308        8 
O      -0.55329844      -2.41742312       1.49720731        8 
C      -1.37444362      -3.08368757      -0.95673640        6 
C      -2.97642591       2.47490686      -0.26255762        6 
C       1.13453623       1.49498148      -0.41877180        6 
C       2.54087063       1.72503527       0.17942474        6 
C       3.12098407       0.27789624       0.15145025        6 
C       1.91306133      -0.50798066      -0.39658745        6 
O       1.34244839       0.41668360      -1.33741081        8 
H       0.30277339       1.34094368       1.60784552        1 
H       1.28295886      -0.75225356       1.69644721        1 
H      -1.07084065      -4.02959711      -0.50559068        1 
H      -3.61754214       2.15075073       0.55842547        1 
H       0.69295237       2.34451450      -0.93117516        1 
H       3.11600879       2.39751187      -0.45835400        1 
H       2.50285881       2.15833224       1.18095164        1 
H       3.96302919       0.20254748      -0.53793910        1 
H       3.44781124      -0.07750427       1.13051610        1 
H       2.13733115      -1.44553649      -0.89710704        1 
H      -2.33029276      -2.76747107      -0.53683106        1 
H      -1.44232308      -3.17742285      -2.03851617        1 
H      -3.26207737       1.94570770      -1.17256622        1 
H      -3.04836204       3.55075323      -0.40510869        1 
