29
Lattice="0.0 0.0 0.0 0.0 0.0 0.0 0.0 0.0 0.0" Properties=species:S:1:pos:R:3:Z:I:1 pbc="F F F"
C       0.70948464      -0.84541184      -0.61840895        6 
C       0.48348625       0.70639389      -0.79297064        6 
C      -0.54002440      -1.69043759      -0.46552015        6 
C      -0.94228232       1.16957218      -0.51684397        6 
O      -1.05465444      -1.60900168       0.77642888        8 
O      -1.01771912      -2.35432633      -1.35128916        8 
O      -0.99242839       2.24781655       0.28531920        8 
O      -1.92177250       0.66622323      -1.01032480        8 
C      -2.30851183       2.75587431       0.57641304        6 
C      -2.31359501      -2.27715456       0.97769072        6 
C       1.69231109      -0.85973656       0.59239858        6 
C       3.10975739      -0.56529413       0.06590688        6 
C       2.96639620       0.94244338      -0.30650096        6 
C       1.53669437       1.24870080       0.20218899        6 
O       1.37605304       0.34385765       1.30566847        8 
H       1.19541293      -1.23443598      -1.51241371        1 
H       0.68898563       0.99735529      -1.82640585        1 
H      -2.81515707       3.05331140      -0.34270073        1 
H      -2.20936247      -3.35068426       0.81250925        1 
H       1.58904988      -1.71605505       1.25333940        1 
H       3.84174408      -0.70806080       0.86227446        1 
H       3.39271261      -1.19784359      -0.77750919        1 
H       3.69827553       1.55658327       0.21925921        1 
H       3.07529796       1.13231729      -1.37673202        1 
H       1.36160787       2.26680251       0.53276651        1 
H      -2.90138163       1.99481307       1.08524863        1 
H      -2.14905830       3.61427698       1.22487588        1 
H      -3.06003820      -1.87522783       0.29119941        1 
H      -2.58666757      -2.07320423       2.01081662        1 
