29
Lattice="0.0 0.0 0.0 0.0 0.0 0.0 0.0 0.0 0.0" Properties=species:S:1:pos:R:3:Z:I:1 pbc="F F F"
C      -0.25443627      -0.79970277       0.58129631        6 
C      -0.83487132       0.63762266       0.76049159        6 
C       1.25615539      -0.91503967       0.52394765        6 
C       0.04306123       1.82439637       0.40102956        6 
O       1.63306658      -2.03793544      -0.12213676        8 
O       2.03291192      -0.15092294       1.03960536        8 
O       0.75678872       1.62760838      -0.71719013        8 
O       0.00455462       2.87367244       0.99983668        8 
C       1.62143911       2.70418905      -1.11697876        6 
C       3.04974083      -2.29448357      -0.17177915        6 
C      -1.09628093      -1.35204874      -0.60643009        6 
C      -2.47002063      -1.79591087      -0.06245347        6 
C      -3.10725810      -0.41190168       0.27591552        6 
C      -2.02274518       0.55592790      -0.25660339        6 
O      -1.44049834      -0.17143141      -1.34396173        8 
H      -0.50204413      -1.37800895       1.47961139        1 
H      -1.18469898       0.81919505       1.77474769        1 
H       1.05238520       3.62465136      -1.25401084        1 
H       3.45301494      -2.40016562       0.83644392        1 
H      -0.57935082      -2.05801642      -1.24843997        1 
H      -3.03090569      -2.30697262      -0.84637048        1 
H      -2.39802724      -2.46419696       0.79770233        1 
H      -4.04718488      -0.26150440      -0.25679333        1 
H      -3.29776596      -0.27381310       1.34202288        1 
H      -2.38349826       1.52139449      -0.60466966        1 
H       2.39266909       2.86204231      -0.36123062        1 
H       2.06591374       2.38340169      -2.05651689        1 
H       3.56484546      -1.47976119      -0.68220259        1 
H       3.15587111      -3.22353759      -0.72742447        1 
