29
Lattice="0.0 0.0 0.0 0.0 0.0 0.0 0.0 0.0 0.0" Properties=species:S:1:pos:R:3:Z:I:1 pbc="F F F"
C      -0.45324982       0.76213724      -0.69455964        6 
C      -0.77849904      -0.77241786      -0.70058882        6 
C       1.02935766       1.09001921      -0.65165802        6 
C       0.33385440      -1.74436156      -0.35741777        6 
O       1.34002603       1.99548358       0.29160209        8 
O       1.83190137       0.62580403      -1.42512635        8 
O       1.12190226      -1.30505022       0.63805702        8 
O       0.43828384      -2.83612019      -0.86389042        8 
C       2.19012132      -2.18191222       1.03666716        6 
C       2.72933557       2.36589576       0.37398877        6 
C      -1.35605141       1.26917820       0.46157933        6 
C      -2.81465262       1.34014000      -0.04216423        6 
C      -3.17627435      -0.17472992      -0.11781859        6 
C      -1.87452396      -0.81626600       0.41363020        6 
O      -1.39786532       0.14743936       1.35763628        8 
H      -0.78369948       1.18772298      -1.64716528        1 
H      -1.17285423      -1.10089990      -1.66007192        1 
H       1.79260506      -3.14317147       1.36504369        1 
H       3.06485607       2.80068982      -0.56844358        1 
H      -0.98375876       2.14491882       0.98262548        1 
H      -3.43796291       1.86027874       0.68642385        1 
H      -2.90942897       1.85595023      -0.99996843        1 
H      -4.01282452      -0.41905054       0.53821975        1 
H      -3.42675168      -0.51126897      -1.12554147        1 
H      -1.98749131      -1.78557627       0.89460325        1 
H       2.87719982      -2.33877735       0.20386004        1 
H       2.68960038      -1.67310448       1.85821370        1 
H       3.33911923       1.49110218       0.60381876        1 
H       2.78651834       3.09569628       1.17837715        1 
