29
Lattice="0.0 0.0 0.0 0.0 0.0 0.0 0.0 0.0 0.0" Properties=species:S:1:pos:R:3:Z:I:1 pbc="F F F"
C      -0.69722757       0.49111823      -0.86708685        6 
C      -0.26281888      -0.95211563      -0.39881683        6 
C       0.39184453       1.53740234      -0.68119637        6 
C       1.14580077      -1.05401346       0.14856623        6 
O       0.22648798       2.28218879       0.41580211        8 
O       1.28922177       1.69033292      -1.47817555        8 
O       1.82599868      -2.03774878      -0.47822124        8 
O       1.60759794      -0.39042071       1.04352666        8 
C       3.18308798      -2.24402102      -0.03980815        6 
C       1.29416048       3.19587322       0.72795079        6 
C      -1.97251762       0.69240935      -0.00850400        6 
C      -3.10858058      -0.20593438      -0.55133709        6 
C      -2.66682131      -1.60552713      -0.02215553        6 
C      -1.34610804      -1.23933504       0.68852963        6 
O      -1.62414848       0.05244158       1.22764142        8 
H      -0.91180940       0.47642691      -1.93605417        1 
H      -0.34512959      -1.65518596      -1.22583080        1 
H       3.76730927      -1.33417863      -0.18279304        1 
H       1.43071341       3.91816047      -0.07825134        1 
H      -2.23502427       1.72940338       0.17861578        1 
H      -4.06591796       0.09614371      -0.12514913        1 
H      -3.19376274      -0.16348492      -1.63923500        1 
H      -3.38319395      -2.00119896       0.69939905        1 
H      -2.53298881      -2.34732013      -0.81140129        1 
H      -1.02799598      -1.91054633       1.48342194        1 
H       3.20483854      -2.52612043       1.01403563        1 
H       3.56746971      -3.04978091      -0.66097119        1 
H       2.21830876       2.63805748       0.88354621        1 
H       0.98788500       3.69235214       1.64563382        1 
