29
Lattice="0.0 0.0 0.0 0.0 0.0 0.0 0.0 0.0 0.0" Properties=species:S:1:pos:R:3:Z:I:1 pbc="F F F"
C      -0.28916661      -1.00327327       0.54130152        6 
C      -0.55005989       0.54198365       0.53457639        6 
C       1.00811182      -1.47999622      -0.10015531        6 
C       0.56851069       1.44800192       0.06470596        6 
O       1.97795855      -1.57276905       0.83783617        8 
O       1.16827469      -1.74707403      -1.26092858        8 
O       0.26828989       2.72740063       0.39325726        8 
O       1.56636980       1.13698543      -0.53233064        8 
C       1.20999453       3.72795844      -0.03879153        6 
C       3.29153408      -1.88725928       0.34020068        6 
C      -1.51276410      -1.48825733      -0.28660806        6 
C      -2.80459470      -1.34372909       0.54986681        6 
C      -3.05169736       0.19393438       0.46213327        6 
C      -1.82609878       0.63349544      -0.36653863        6 
O      -1.65216495      -0.45297519      -1.27306219        8 
H      -0.30837277      -1.37542033       1.56570049        1 
H      -0.79800407       0.87828774       1.54281530        1 
H       2.19606238       3.53110355       0.38429527        1 
H       3.62088077      -1.10934200      -0.35009645        1 
H      -1.36710860      -2.44274568      -0.78456643        1 
H      -3.61963414      -1.90549380       0.09192921        1 
H      -2.68005243      -1.70165641       1.57405065        1 
H      -3.96895870       0.41801036      -0.08462047        1 
H      -3.10694786       0.68518417       1.43546438        1 
H      -1.92990605       1.56817140      -0.91230307        1 
H       1.28199353       3.73808153      -1.12747212        1 
H       0.81673920       4.67317867       0.32855792        1 
H       3.28646117      -2.85006762      -0.17293641        1 
H       3.93429602      -1.92340153       1.21728424        1 
