29
Lattice="0.0 0.0 0.0 0.0 0.0 0.0 0.0 0.0 0.0" Properties=species:S:1:pos:R:3:Z:I:1 pbc="F F F"
C      -0.43018023      -0.88579247       0.43964747        6 
C      -0.68089505       0.65002360       0.67720630        6 
C       0.91560267      -1.32057841      -0.11655712        6 
C       0.35658893       1.70108139       0.31496687        6 
O       1.78357118      -1.54782327       0.89583555        8 
O       1.18537608      -1.48695737      -1.27763788        8 
O       1.49361926       1.21337742      -0.19233360        8 
O       0.15304616       2.87999443       0.48953832        8 
C       2.49045521       2.17434742      -0.58849727        6 
C       3.11741803      -1.91358813       0.50455806        6 
C      -1.58479939      -1.21260938      -0.55248992        6 
C      -2.91493488      -1.30105051       0.22201603        6 
C      -3.17906225       0.20433768       0.52977023        6 
C      -1.97229898       0.86560451      -0.17140994        6 
O      -1.73506384       0.00964474      -1.29191749        8 
H      -0.55835271      -1.41143224       1.38705937        1 
H      -0.88972373       0.83280953       1.73338945        1 
H       2.07418756       2.87206988      -1.31552313        1 
H       3.56654071      -1.11700149      -0.09101918        1 
H      -1.36870834      -2.02597862      -1.23923639        1 
H      -3.69422247      -1.71674347      -0.41845616        1 
H      -2.84527950      -1.92138143       1.11771191        1 
H      -4.11078792       0.54687727       0.07795193        1 
H      -3.21807346       0.42999569       1.59712867        1 
H      -2.11576007       1.89134304      -0.50008422        1 
H       2.84934743       2.72686385       0.28102191        1 
H       3.29102477       1.58861975      -1.03411742        1 
H       3.10718853      -2.83470492      -0.08026050        1 
H       3.66650969      -2.05430856       1.43301396        1 
