29
Lattice="0.0 0.0 0.0 0.0 0.0 0.0 0.0 0.0 0.0" Properties=species:S:1:pos:R:3:Z:I:1 pbc="F F F"
C      -0.76252511      -0.30518506      -0.59634873        6 
C       0.78617958      -0.27504826      -0.41740703        6 
C      -1.64501998       0.74517765       0.05890457        6 
C       1.52914693       0.99954698      -0.06204688        6 
O      -2.74834742       0.92030414      -0.72563755        8 
O      -1.48533567       1.31289575       1.10152495        8 
O       2.76761527       0.92904366      -0.63289813        8 
O       1.18837799       1.91661160       0.63208146        8 
C       3.65808702       2.01644155      -0.32621683        6 
C      -3.74189366       1.82197773      -0.20738530        6 
C      -1.06671005      -1.65651196       0.14004521        6 
C      -0.44591214      -2.85032612      -0.62806237        6 
C       1.04534027      -2.76284857      -0.17757324        6 
C       1.01407702      -1.44189278       0.61368311        6 
O      -0.23709591      -1.53695886       1.29938555        8 
H      -1.03256238      -0.35673451      -1.64993625        1 
H       1.22184903      -0.58189788      -1.36861326        1 
H       3.22743459       2.96585252      -0.64812013        1 
H      -3.31232771       2.81206388      -0.04778796        1 
H      -2.10531499      -1.78156640       0.43838128        1 
H      -0.90608069      -3.78779757      -0.31403156        1 
H      -0.57349390      -2.75699744      -1.70839980        1 
H       1.30703078      -3.58870269       0.48589662        1 
H       1.75310609      -2.74940181      -1.00808166        1 
H       1.81817371      -1.27988791       1.32691422        1 
H       3.85394713       2.06021120       0.74666177        1 
H       4.57397501       1.80536564      -0.87421922        1 
H      -4.14068419       1.45040443       0.73848614        1 
H      -4.52379343       1.85933571      -0.96316537        1 
