29
Lattice="0.0 0.0 0.0 0.0 0.0 0.0 0.0 0.0 0.0" Properties=species:S:1:pos:R:3:Z:I:1 pbc="F F F"
C       0.49663627       0.95301544       0.45547136        6 
C       0.66604729      -0.58513823       0.76760102        6 
C      -0.81856302       1.35678588      -0.18948949        6 
C      -0.54254130      -1.48299294       0.59924852        6 
O      -1.75907486       1.54187510       0.76844692        8 
O      -1.04113791       1.45923480      -1.36640096        8 
O      -1.06939350      -1.41050605      -0.63207958        8 
O      -0.96529300      -2.20720610       1.47037041        8 
C      -2.22103841      -2.23169594      -0.89228274        6 
C      -3.08474003       1.84793261       0.29781286        6 
C       1.68066510       1.16972463      -0.52238178        6 
C       3.01712879       1.10379573       0.25235952        6 
C       3.16508658      -0.43440366       0.46878791        6 
C       1.85835039      -0.94045272      -0.17999245        6 
O       1.68638177      -0.04831790      -1.27921135        8 
H       0.60233177       1.52511259       1.37787320        1 
H       0.95569201      -0.71270359       1.80947926        1 
H      -1.96334729      -3.28852851      -0.80572656        1 
H      -3.45858786       1.04170788      -0.33552290        1 
H       1.55463647       2.01278858      -1.19603165        1 
H       3.82978163       1.49957598      -0.35788187        1 
H       2.98789032       1.67078527       1.18524821        1 
H       4.02627339      -0.82941549      -0.07184376        1 
H       3.25899306      -0.72143971       1.51760335        1 
H       1.86845145      -1.96928734      -0.53360326        1 
H      -3.02071679      -2.00002838      -0.18686292        1 
H      -2.51968194      -1.99025603      -1.90961669        1 
H      -3.08245626       2.77792063      -0.27271024        1 
H      -3.69546852       1.94749062       1.19228635        1 
