29
Lattice="0.0 0.0 0.0 0.0 0.0 0.0 0.0 0.0 0.0" Properties=species:S:1:pos:R:3:Z:I:1 pbc="F F F"
C       0.20966263       1.04175046       0.25630355        6 
C       0.45770920      -0.40601169       0.80617781        6 
C      -1.18293535       1.43000072      -0.19820254        6 
C      -0.45750733      -1.48197403       0.20352607        6 
O      -2.06306238       1.24843432       0.80045698        8 
O      -1.44343044       1.99391443      -1.23354040        8 
O       0.22999130      -2.58556093      -0.15046607        8 
O      -1.65954419      -1.41638856       0.12923511        8 
C      -0.54453970      -3.66351008      -0.70735540        6 
C      -3.44411419       1.50289263       0.49328474        6 
C       1.36889103       1.20729470      -0.76327791        6 
C       2.59596331       1.71056039       0.01459344        6 
C       2.86896963       0.46679256       0.91686479        6 
C       1.91221492      -0.58678224       0.30020976        6 
O       1.75771262      -0.14567392      -1.06272047        8 
H       0.37647541       1.72324223       1.09766791        1 
H       0.34463618      -0.45254262       1.89110639        1 
H      -1.26753326      -4.03246320       0.02182131        1 
H      -3.78381921       0.80823726      -0.27634228        1 
H       1.09839668       1.73242209      -1.67459634        1 
H       3.42493406       1.88963736      -0.67162360        1 
H       2.40797433       2.62700440       0.57763120        1 
H       3.90472016       0.13368903       0.84493552        1 
H       2.65059386       0.65042705       1.97186024        1 
H       2.27292941      -1.60882102       0.31570999        1 
H      -1.07237129      -3.32707495      -1.60046761        1 
H       0.17830954      -4.43658900      -0.95835580        1 
H      -3.58238446       2.52943622       0.15101677        1 
H      -3.98357028       1.32930235       1.42173511        1 
