29
Lattice="0.0 0.0 0.0 0.0 0.0 0.0 0.0 0.0 0.0" Properties=species:S:1:pos:R:3:Z:I:1 pbc="F F F"
C      -0.30100581      -0.79816568       0.53764033        6 
C      -0.73287235       0.70647492       0.52675608        6 
C       1.00076568      -1.20432974      -0.13803270        6 
C       0.24508086       1.84843775       0.32114359        6 
O       1.78627267      -1.86478789       0.75226113        8 
O       1.30930793      -1.03329379      -1.28665041        8 
O       1.46987637       1.47873042      -0.06639863        8 
O      -0.06132381       2.99271033       0.56902119        8 
C       2.43467132       2.53181826      -0.24721975        6 
C       3.03746481      -2.35142479       0.23574783        6 
C      -1.48058029      -1.39663104      -0.29949770        6 
C      -2.80678389      -1.30460761       0.49483079        6 
C      -3.18575794       0.19420599       0.28238265        6 
C      -1.93872315       0.69211135      -0.47462393        6 
O      -1.64326340      -0.41473406      -1.32863669        8 
H      -0.28411556      -1.18455142       1.55522790        1 
H      -1.13144853       0.93408258       1.51832306        1 
H       2.07984199       3.24611297      -0.99086410        1 
H       3.63649874      -1.52545749      -0.15065073        1 
H      -1.26822605      -2.36422848      -0.74842848        1 
H      -3.55509913      -1.97129134       0.06462818        1 
H      -2.68086677      -1.57384767       1.54553554        1 
H      -4.06774529       0.29120785      -0.35234111        1 
H      -3.36897849       0.73577163       1.21190534        1 
H      -2.05836642       1.60107749      -1.05839019        1 
H       2.61362600       3.05028404       0.69608344        1 
H       3.33772366       2.03485601      -0.59377872        1 
H       2.86633713      -3.07243972      -0.56545833        1 
H       3.53551436      -2.82647041       1.07829159        1 
