29
Lattice="0.0 0.0 0.0 0.0 0.0 0.0 0.0 0.0 0.0" Properties=species:S:1:pos:R:3:Z:I:1 pbc="F F F"
C      -0.55012682       0.62121457       0.39742072        6 
C       0.87196560       0.16845286       0.85603126        6 
C      -1.66450105      -0.38117646       0.15848981        6 
C       1.41900196      -1.22551149       0.58358646        6 
O      -2.84630441       0.23860261       0.43342644        8 
O      -1.60863209      -1.51053622      -0.24885431        8 
O       1.07960790      -1.71888129      -0.60471094        8 
O       2.22086206      -1.74675248       1.32916687        8 
C       1.62576031      -3.00216963      -0.95068522        6 
C      -4.03408024      -0.53607626       0.18669967        6 
C      -0.21951591       1.54978595      -0.82861801        6 
C       0.12980265       2.94249766      -0.26936950        6 
C       1.48510796       2.62338734       0.43566840        6 
C       1.72502916       1.15899733      -0.01051495        6 
O       1.05523832       1.08432063      -1.27423569        8 
H      -0.94661015       1.25926507       1.18830114        1 
H       1.01391389       0.33875620       1.92200730        1 
H       2.71556629      -2.95706979      -0.98978204        1 
H      -4.03209658      -1.44145806       0.79536057        1 
H      -0.93559700       1.51762032      -1.64638660        1 
H       0.26872306       3.64811666      -1.08999370        1 
H      -0.63196579       3.33951326       0.40360789        1 
H       2.28673458       3.26828325       0.07416223        1 
H       1.43872163       2.72071890       1.52210075        1 
H       2.76716642       0.86886298      -0.12326102        1 
H       1.32085176      -3.75312880      -0.22033064        1 
H       1.21334586      -3.23284739      -1.92997820        1 
H      -4.09848407      -0.81430043      -0.86664543        1 
H      -4.86436254       0.10992953       0.46369044        1 
