29
Lattice="0.0 0.0 0.0 0.0 0.0 0.0 0.0 0.0 0.0" Properties=species:S:1:pos:R:3:Z:I:1 pbc="F F F"
C      -0.50278521      -0.93715324       0.46045053        6 
C      -0.65198136       0.59987048       0.75871991        6 
C       0.83694918      -1.39636388      -0.08930793        6 
C       0.49862501       1.54414249       0.47542544        6 
O       1.77049452      -1.36567483       0.88923819        8 
O       1.06035568      -1.75422122      -1.21588300        8 
O       1.23152909       1.18166883      -0.58725999        8 
O       0.68394270       2.56065353       1.10347973        8 
C       2.30303635       2.06253403      -0.96698156        6 
C       3.11017126      -1.70101833       0.48692902        6 
C      -1.65381902      -1.15797664      -0.55289001        6 
C      -3.00669227      -1.13414412       0.19121838        6 
C      -3.16443352       0.39069149       0.47887506        6 
C      -1.87285099       0.94211379      -0.16402735        6 
O      -1.67385530       0.07960208      -1.28271674        8 
H      -0.66460236      -1.49269386       1.38687048        1 
H      -0.90483674       0.76778320       1.80440899        1 
H       1.91427178       3.05300372      -1.20662032        1 
H       3.45333571      -1.01177235      -0.28655110        1 
H      -1.49060751      -1.98233900      -1.24062643        1 
H      -3.80229357      -1.49970479      -0.45923370        1 
H      -2.99915369      -1.74600708       1.09556129        1 
H      -4.03886550       0.80268864      -0.02673665        1 
H      -3.24193579       0.62997313       1.54094382        1 
H      -1.91232283       1.97916904      -0.49059178        1 
H       3.02935530       2.14722166      -0.15687851        1 
H       2.75214779       1.60343196      -1.84464371        1 
H       3.15148841      -2.72112661       0.10215871        1 
H       3.71696034      -1.60474962       1.38459582        1 
