29
Lattice="0.0 0.0 0.0 0.0 0.0 0.0 0.0 0.0 0.0" Properties=species:S:1:pos:R:3:Z:I:1 pbc="F F F"
C      -0.38420997      -0.74821911       0.50952424        6 
C      -0.69934250       0.78725300       0.56451859        6 
C       0.91355341      -1.12609654      -0.17539215        6 
C       0.39368821       1.73571883       0.10277394        6 
O       1.62543949      -1.97747358       0.59849835        8 
O       1.25796361      -0.78680756      -1.27918865        8 
O       1.58217417       1.39474482       0.64175750        8 
O       0.21791110       2.72579355      -0.56033252        8 
C       2.71196721       2.19232987       0.24122373        6 
C       2.86164619      -2.45018686       0.03405286        6 
C      -1.60434170      -1.23880086      -0.33706039        6 
C      -2.87848564      -1.19824655       0.53695784        6 
C      -3.17969273       0.33232198       0.55236326        6 
C      -1.99572233       0.87330395      -0.27704275        6 
O      -1.80526757      -0.16149534      -1.25447527        8 
H      -0.38386754      -1.18789594       1.50500881        1 
H      -0.89029911       1.07082118       1.60435542        1 
H       2.86712899       2.09917188      -0.83452138        1 
H       3.53635520      -1.61344442      -0.15391224        1 
H      -1.43426610      -2.16272102      -0.88582141        1 
H      -3.68221731      -1.75994349       0.05909992        1 
H      -2.71671217      -1.61734716       1.53234926        1 
H      -4.12158307       0.55584140       0.04985745        1 
H      -3.22286984       0.75495910       1.55830617        1 
H      -2.14042717       1.82888097      -0.77217735        1 
H       2.55171205       3.24005927       0.49809041        1 
H       3.56091955       1.78749870       0.78772647        1 
H       2.67754701      -2.97864558      -0.90261376        1 
H       3.28277819      -3.12242362       0.77840443        1 
