29
Lattice="0.0 0.0 0.0 0.0 0.0 0.0 0.0 0.0 0.0" Properties=species:S:1:pos:R:3:Z:I:1 pbc="F F F"
C      -0.39256159      -0.79204990       0.53297818        6 
C      -0.39260176       0.77906535       0.45926076        6 
C       0.75440556      -1.55729861      -0.10630252        6 
C       0.80497604       1.48942157      -0.14213084        6 
O       1.42351554      -2.25544880       0.85239116        8 
O       1.05469313      -1.58213168      -1.26756514        8 
O       1.17406172       2.51306430       0.67556536        8 
O       1.34895646       1.25756044      -1.18736799        8 
C       2.26219937       3.32747582       0.20035884        6 
C       2.52818115      -3.05090230       0.38415756        6 
C      -1.72026057      -1.10195791      -0.23394876        6 
C      -2.92808775      -0.72664961       0.65539281        6 
C      -2.92013901       0.82779269       0.52629341        6 
C      -1.68871597       1.03484810      -0.38238268        6 
O      -1.74107202      -0.09582638      -1.24900373        8 
H      -0.45411108      -1.10567563       1.57355164        1 
H      -0.51603212       1.17856673       1.46447142        1 
H       3.16869229       2.72911714       0.09481759        1 
H       3.25007927      -2.42786163      -0.14549016        1 
H      -1.75618685      -2.08600913      -0.69508108        1 
H      -3.84512546      -1.15618559       0.24988631        1 
H      -2.81622188      -1.07471398       1.68428966        1 
H      -3.81869416       1.18860799       0.02379099        1 
H      -2.83378347       1.34490373       1.48358218        1 
H      -1.67663503       1.95075552      -0.96888494        1 
H       2.01476283       3.77124297      -0.76525872        1 
H       2.39843393       4.09903614       0.95494466        1 
H       2.17488727      -3.83574362      -0.28735205        1 
H       2.97312872      -3.48497168       1.27702736        1 
