29
Lattice="0.0 0.0 0.0 0.0 0.0 0.0 0.0 0.0 0.0" Properties=species:S:1:pos:R:3:Z:I:1 pbc="F F F"
C       0.64682769      -0.44404090      -0.49887203        6 
C       0.07096386       1.00984193      -0.56303035        6 
C      -0.28313890      -1.56739742      -0.09403513        6 
C      -1.26969277       1.24465204       0.12230007        6 
O       0.28749935      -2.75091595      -0.43069111        8 
O      -1.34272582      -1.48680759       0.47061120        8 
O      -2.24791879       1.35034260      -0.80993530        8 
O      -1.46686823       1.31426438       1.30483895        8 
C      -3.58773799       1.44106954      -0.29037401        6 
C      -0.43749908      -3.93329772      -0.04243612        6 
C       1.88143452      -0.25864398       0.44691842        6 
C       3.03506790       0.34455649      -0.38056590        6 
C       2.49536418       1.79150456      -0.60654427        6 
C       1.18905965       1.75997032       0.22297463        6 
O       1.49369197       0.83388143       1.27534100        8 
H       1.01004459      -0.72251722      -1.48991139        1 
H      -0.01149195       1.34206940      -1.59699202        1 
H      -3.81461044       0.55503767       0.30441790        1 
H      -1.41743198      -3.95455295      -0.52165251        1 
H       2.12662975      -1.12577751       1.05533491        1 
H       3.95063745       0.35336685       0.21266946        1 
H       3.23089903      -0.20019130      -1.30594435        1 
H       3.18263440       2.54002140      -0.21058280        1 
H       2.31327244       2.02270665      -1.65821922        1 
H       0.87574842       2.70712955       0.65420921        1 
H      -3.70013023       2.33170343       0.32986127        1 
H      -4.23512266       1.49780924      -1.16304133        1 
H      -0.56716862      -3.96257808       1.04054433        1 
H       0.17118841      -4.76966199      -0.37892996        1 
