29
Lattice="0.0 0.0 0.0 0.0 0.0 0.0 0.0 0.0 0.0" Properties=species:S:1:pos:R:3:Z:I:1 pbc="F F F"
C       0.49820664       0.91318636       0.38557569        6 
C       0.58784339      -0.58116457       0.82967190        6 
C      -0.86115561       1.45907984       0.00001149        6 
C      -0.50600153      -1.54246059       0.40066712        6 
O      -1.78063650       1.14254118       0.93677719        8 
O      -1.08405948       2.18075876      -0.93917389        8 
O      -1.21673085      -1.11190726      -0.65325409        8 
O      -0.64694193      -2.63382231       0.90138410        8 
C      -2.19093975      -2.02483668      -1.18901191        6 
C      -3.12322652       1.58934977       0.67962156        6 
C       1.58840832       0.99594157      -0.71739724        6 
C       2.95711517       1.15909853      -0.02950710        6 
C       3.11371691      -0.24699396       0.62892302        6 
C       1.88334911      -0.99060156       0.05498672        6 
O       1.66918354      -0.35375699      -1.21023211        8 
H       0.79155034       1.53335888       1.23934295        1 
H       0.70084593      -0.69685096       1.90638204        1 
H      -1.70170381      -2.92995315      -1.55142984        1 
H      -3.48896812       1.15876680      -0.25421769        1 
H       1.35381169       1.67854503      -1.52851167        1 
H       3.73227228       1.33336868      -0.77678669        1 
H       2.98117137       1.98079301       0.68931445        1 
H       4.03505789      -0.73788115       0.31380185        1 
H       3.10578718      -0.21596057       1.72047872        1 
H       2.00103848      -2.06352585      -0.07866315        1 
H      -2.92299894      -2.29191424      -0.42544225        1 
H      -2.66353677      -1.49103142      -2.01044543        1 
H      -3.16198198       2.67757567       0.61295013        1 
H      -3.71382811       1.23471382       1.52140746        1 
