29
Lattice="0.0 0.0 0.0 0.0 0.0 0.0 0.0 0.0 0.0" Properties=species:S:1:pos:R:3:Z:I:1 pbc="F F F"
C       0.63337109      -0.61829024       0.58078476        6 
C      -0.82356187      -0.07427584       0.42669834        6 
C       1.77262368       0.12204011      -0.10686868        6 
C      -1.06199350       1.36569708       0.01757082        6 
O       2.75393502       0.38166239       0.80041703        8 
O       1.84755383       0.43035598      -1.26313518        8 
O      -2.22422608       1.78370602       0.59190140        8 
O      -0.41908129       2.05506457      -0.72680782        8 
C      -2.66036146       3.10694133       0.23232119        6 
C       3.90687942       1.06946725       0.28150379        6 
C       0.45842662      -1.99629942      -0.14218138        6 
C      -0.47994851      -2.92105613       0.67262593        6 
C      -1.88123102      -2.34985444       0.29021546        6 
C      -1.45940983      -1.12774580      -0.54918725        6 
O      -0.33974571      -1.63327484      -1.27451877        8 
H       0.89161729      -0.73819770       1.63130902        1 
H      -1.31582265      -0.16928380       1.39520017        1 
H      -1.92034392       3.84861847       0.53693519        1 
H       3.61121395       2.01610929      -0.17269002        1 
H       1.38781894      -2.44927641      -0.47979439        1 
H      -0.36836590      -3.95675094       0.34984553        1 
H      -0.27579428      -2.87842231       1.74451142        1 
H      -2.43833051      -3.05242126      -0.33151967        1 
H      -2.49773166      -2.08703366       1.15156491        1 
H      -2.20181536      -0.72982938      -1.23676756        1 
H      -2.81575384       3.17934419      -0.84534664        1 
H      -3.59628654       3.25882176       0.76587388        1 
H       4.41259358       0.45729038      -0.46740923        1 
H       4.55545263       1.23788789       1.13869974        1 
