29
Lattice="0.0 0.0 0.0 0.0 0.0 0.0 0.0 0.0 0.0" Properties=species:S:1:pos:R:3:Z:I:1 pbc="F F F"
C      -0.75031687       0.46870950      -0.83916517        6 
C      -0.17365622      -0.94506369      -0.45515653        6 
C       0.25179710       1.60128254      -0.66773615        6 
C       1.24085136      -0.95075820       0.08395334        6 
O       0.01570756       2.35504258       0.41137678        8 
O       1.14174951       1.80693089      -1.46000994        8 
O       1.93755703      -1.98396961      -0.43786081        8 
O       1.69342247      -0.18755741       0.90032142        8 
C       3.29589260      -2.12324439       0.02211781        6 
C       1.00554114       3.35613382       0.71137237        6 
C      -2.00393588       0.52398329       0.06781828        6 
C      -3.08311175      -0.43436950      -0.48767838        6 
C      -2.51254657      -1.81842284      -0.05014833        6 
C      -1.20318375      -1.38341869       0.64170896        6 
O      -1.56472188      -0.14864297       1.25840687        8 
H      -1.01074373       0.47283479      -1.89870105        1 
H      -0.20633548      -1.62070286      -1.30793631        1 
H       3.87396960      -1.23513864      -0.23657378        1 
H       1.09255842       4.06970149      -0.10937188        1 
H      -2.34037996       1.52536511       0.31840326        1 
H      -4.04577616      -0.23552469      -0.01520670        1 
H      -3.20945322      -0.34251645      -1.56833581        1 
H      -3.16909056      -2.30852576       0.67038197        1 
H      -2.34624849      -2.50673379      -0.88068867        1 
H      -0.80779291      -2.06927092       1.38815507        1 
H       3.31971630      -2.26741545       1.10325404        1 
H       3.68646545      -2.99859602      -0.49195989        1 
H       1.96889501       2.87553686       0.88526260        1 
H       0.65307029       3.84710601       1.61543870        1 
