29
Lattice="0.0 0.0 0.0 0.0 0.0 0.0 0.0 0.0 0.0" Properties=species:S:1:pos:R:3:Z:I:1 pbc="F F F"
C      -0.55683007       0.43841961      -0.65536580        6 
C      -0.20825200      -1.07238886      -0.42638686        6 
C       0.41116105       1.45426133      -0.06827419        6 
C       1.17791369      -1.38810557       0.11251911        6 
O      -0.08421178       2.70105750      -0.23432080        8 
O       1.47552900       1.23246549       0.44943855        8 
O       2.09673940      -1.23689371      -0.86379014        8 
O       1.42579564      -1.79406905       1.21844591        8 
C       3.46906025      -1.36759534      -0.45237266        6 
C       0.72896648       3.77697933       0.27215738        6 
C      -1.93178362       0.51343415       0.07537937        6 
C      -3.00016255      -0.28933734      -0.70382572        6 
C      -2.62784217      -1.75138298      -0.30879662        6 
C      -1.35536081      -1.50770541       0.52506848        6 
O      -1.68269007      -0.29559468       1.22862281        8 
H      -0.65529333       0.67495684      -1.71672567        1 
H      -0.27939165      -1.59322774      -1.38415107        1 
H       3.70215751      -0.60378117       0.29086694        1 
H       1.70437873       3.77923203      -0.21632980        1 
H      -2.22238446       1.51611010       0.37511862        1 
H      -3.99998957      -0.02215663      -0.35932908        1 
H      -2.95472084      -0.10735837      -1.77975921        1 
H      -3.40250962      -2.20233690       0.31298368        1 
H      -2.45622373      -2.40335519      -1.16761175        1 
H      -1.07793481      -2.27877317       1.23763480        1 
H       3.65191382      -2.35690209      -0.03045962        1 
H       4.05903548      -1.21987606      -1.35446949        1 
H       0.86582013       3.67343083       1.34944280        1 
H       0.18081093       4.68733912       0.04020484        1 
