29
Lattice="0.0 0.0 0.0 0.0 0.0 0.0 0.0 0.0 0.0" Properties=species:S:1:pos:R:3:Z:I:1 pbc="F F F"
C      -0.36184944       0.58703724      -0.68415580        6 
C      -0.50975281      -0.92974715      -0.37637759        6 
C       0.76783552       1.27859797       0.06398397        6 
C       0.72359524      -1.71962546       0.01233067        6 
O       0.83694607       2.57559683      -0.31216455        8 
O       1.50120949       0.78533172       0.88132927        8 
O       1.75266031      -1.42837790      -0.80865094        8 
O       0.73780780      -2.62131746       0.81294631        8 
C       2.98378684      -2.12471777      -0.54662008        6 
C       1.83516777       3.37237348       0.35371652        6 
C      -1.70138571       1.09194256      -0.05858661        6 
C      -2.92296740       0.50330122      -0.80706896        6 
C      -3.00162196      -0.92953326      -0.19277039        6 
C      -1.69835355      -0.94897381       0.62586608        6 
O      -1.69436909       0.37794234       1.18555303        8 
H      -0.27791389       0.81257860      -1.74705777        1 
H      -0.82250796      -1.42063845      -1.30498044        1 
H       3.36086332      -1.85050663       0.43972362        1 
H       2.82897599       2.95399267       0.18831709        1 
H      -1.73339723       2.16287382       0.12442547        1 
H      -3.81971981       1.08508366      -0.59046935        1 
H      -2.77931217       0.49994201      -1.89010017        1 
H      -3.86156371      -1.02611717       0.47147803        1 
H      -3.05230085      -1.72192386      -0.94214352        1 
H      -1.61392293      -1.69094560       1.41415440        1 
H       2.83256714      -3.20404255      -0.59257254        1 
H       3.67291438      -1.79858612      -1.32270622        1 
H       1.63588917       3.41206712       1.42569523        1 
H       1.75700768       4.36314950      -0.08828772        1 
