29
Lattice="0.0 0.0 0.0 0.0 0.0 0.0 0.0 0.0 0.0" Properties=species:S:1:pos:R:3:Z:I:1 pbc="F F F"
C      -0.48239164      -0.93070630       0.44145103        6 
C      -0.65277652       0.59981569       0.75770598        6 
C       0.86848495      -1.38385482      -0.08502958        6 
C       0.45463650       1.58559429       0.43798071        6 
O       1.77770347      -1.37860801       0.91631799        8 
O       1.11486475      -1.72928991      -1.21090719        8 
O       1.28812310       1.16797023      -0.52354040        8 
O       0.51977277       2.67662658       0.95562635        8 
C       2.30969171       2.09002485      -0.94343958        6 
C       3.12396243      -1.71785913       0.54145449        6 
C      -1.62049705      -1.15503472      -0.58792230        6 
C      -2.97485886      -1.19613518       0.14977004        6 
C      -3.16526333       0.30971032       0.50721399        6 
C      -1.90103709       0.92523261      -0.13216534        6 
O      -1.68080313       0.10425070      -1.27907093        8 
H      -0.65608060      -1.49636697       1.35970009        1 
H      -0.88045728       0.75818581       1.81114987        1 
H       1.86008803       3.01809402      -1.29814003        1 
H       3.49743557      -1.00863111      -0.19933415        1 
H      -1.42780374      -1.95176852      -1.30006610        1 
H      -3.75903703      -1.54665510      -0.52262480        1 
H      -2.95900718      -1.84900826       1.02479760        1 
H      -4.06092644       0.72141443       0.04001083        1 
H      -3.22655358       0.49858746       1.58052020        1 
H      -1.97943731       1.96983753      -0.42488536        1 
H       2.98517604       2.30979555      -0.11511854        1 
H       2.83548296       1.58459010      -1.75014938        1 
H       3.16487197      -2.72563551       0.12553652        1 
H       3.70619677      -1.65706991       1.45831680        1 
