29
Lattice="0.0 0.0 0.0 0.0 0.0 0.0 0.0 0.0 0.0" Properties=species:S:1:pos:R:3:Z:I:1 pbc="F F F"
C      -0.64282942       0.55940591      -0.79415714        6 
C      -0.54580003      -0.98271747      -0.45022165        6 
C       0.64963770       1.33815276      -0.65182809        6 
C       0.75237229      -1.41714289       0.21336757        6 
O       0.94791062       1.59103082       0.63535143        8 
O       1.34771988       1.66800806      -1.57974938        8 
O       1.76636793      -1.36506394      -0.67571190        8 
O       0.88535156      -1.76309063       1.35886540        8 
C       3.07185277      -1.69795982      -0.16967704        6 
C       2.18674519       2.28048183       0.87909618        6 
C      -1.81292465       0.98401105       0.14359313        6 
C      -3.14301376       0.53936075      -0.50208069        6 
C      -3.07156678      -1.00312376      -0.28065501        6 
C      -1.74824606      -1.13153164       0.50959406        6 
O      -1.69517538       0.09268602       1.25545526        8 
H      -0.91993379       0.67340872      -1.84168445        1 
H      -0.65408395      -1.56869130      -1.36491655        1 
H       3.33019486      -1.04738978       0.66729956        1 
H       2.16583087       3.27465410       0.42958995        1 
H      -1.76929708       2.01367148       0.48990752        1 
H      -3.98278901       0.97818296       0.03863099        1 
H      -3.22654228       0.82639046      -1.55208097        1 
H      -3.90932593      -1.35904844       0.31990494        1 
H      -3.05789768      -1.57274080      -1.21244732        1 
H      -1.67068615      -1.97490273       1.18959218        1 
H       3.09757041      -2.73658802       0.16405143        1 
H       3.75290783      -1.54378362      -1.00319998        1 
H       3.02306065       1.71833856       0.46064405        1 
H       2.27040756       2.34864941       1.96109748        1 
