29
Lattice="0.0 0.0 0.0 0.0 0.0 0.0 0.0 0.0 0.0" Properties=species:S:1:pos:R:3:Z:I:1 pbc="F F F"
C      -0.52745261      -0.93640819       0.45617404        6 
C      -0.63388865       0.59833815       0.77744554        6 
C       0.81270495      -1.42482107      -0.06519132        6 
C       0.54828309       1.49724970       0.47915858        6 
O       1.76329691      -1.26730480       0.88280040        8 
O       1.01672698      -1.92474387      -1.14085264        8 
O       1.17864605       1.16943461      -0.66030113        8 
O       0.84407701       2.45234043       1.15843378        8 
C       2.27878754       2.00773876      -1.05307528        6 
C       3.10032485      -1.63214933       0.49738305        6 
C      -1.67401600      -1.11702855      -0.56759320        6 
C      -3.02856436      -1.08308068       0.17310509        6 
C      -3.15147307       0.43658839       0.50239702        6 
C      -1.85177578       0.97917355      -0.13310710        6 
O      -1.67138583       0.13637767      -1.27088895        8 
H      -0.71564475      -1.50003464       1.37361940        1 
H      -0.86612618       0.76607306       1.82763468        1 
H       1.93422487       3.02673324      -1.23464073        1 
H       3.42429885      -1.02488770      -0.34962292        1 
H      -1.51984518      -1.93073721      -1.26974786        1 
H      -3.82977613      -1.41180067      -0.48986713        1 
H      -3.03831099      -1.71904187       1.06061589        1 
H      -4.02014299       0.88108596       0.01460905        1 
H      -3.21773682       0.64780368       1.57121855        1 
H      -1.87610036       2.02288457      -0.43973697        1 
H       3.04377881       2.02074682      -0.27486585        1 
H       2.66349150       1.56460625      -1.96873775        1 
H       3.14614444      -2.68659188       0.22156531        1 
H       3.71894427      -1.43571872       1.37020845        1 
