29
Lattice="0.0 0.0 0.0 0.0 0.0 0.0 0.0 0.0 0.0" Properties=species:S:1:pos:R:3:Z:I:1 pbc="F F F"
C      -0.42145571      -0.78107422       0.50611410        6 
C      -0.41224756       0.79481145       0.48557411        6 
C       0.74148323      -1.51496030      -0.13739528        6 
C       0.76963506       1.49543983      -0.15877226        6 
O       1.39345263      -2.25167555       0.80292615        8 
O       1.06429450      -1.49068917      -1.29340694        8 
O       1.36834495       2.31188846       0.75014915        8 
O       1.14426426       1.39100386      -1.29491617        8 
C       2.49615749       3.06230230       0.26318652        6 
C       2.50683237      -3.02766707       0.32309495        6 
C      -1.74789697      -1.06530931      -0.27092496        6 
C      -2.94999212      -0.74912847       0.64785677        6 
C      -2.93965806       0.81091496       0.61933084        6 
C      -1.73094499       1.07670728      -0.30636622        6 
O      -1.79171829      -0.00889516      -1.23028991        8 
H      -0.48984371      -1.12533502       1.53656016        1 
H      -0.48711709       1.16525201       1.50636477        1 
H       3.28435070       2.38888628      -0.07747665        1 
H       3.26076379      -2.37836747      -0.12460680        1 
H      -1.77643686      -2.02491634      -0.78157812        1 
H      -3.86884333      -1.14927296       0.21718166        1 
H      -2.83524357      -1.16362105       1.65128248        1 
H      -3.85119692       1.20673449       0.16951365        1 
H      -2.82316022       1.26131629       1.60687951        1 
H      -1.74205356       2.02020058      -0.84706218        1 
H       2.19793022       3.70774388      -0.56468720        1 
H       2.83717472       3.65574887       1.10871366        1 
H       2.17453916      -3.75286720      -0.42189021        1 
H       2.90638989      -3.53464763       1.19878813        1 
