29
Lattice="0.0 0.0 0.0 0.0 0.0 0.0 0.0 0.0 0.0" Properties=species:S:1:pos:R:3:Z:I:1 pbc="F F F"
C      -0.54026025       0.65911445      -0.83372364        6 
C      -0.60151434      -0.85874468      -0.45999433        6 
C       0.67930353       1.53286630      -0.57720101        6 
C       0.61754014      -1.75418743      -0.32616296        6 
O       1.19804416       1.40936937       0.64760163        8 
O       1.02619538       2.38671264      -1.36452550        8 
O       1.75421088      -1.14529367       0.03069321        8 
O       0.54705061      -2.94089491      -0.55773203        8 
C       2.91351611      -1.99177287       0.15471041        6 
C       2.28550678       2.29075225       0.96749355        6 
C      -1.68293907       1.17838275       0.10855488        6 
C      -3.05594698       0.61547025      -0.33717238        6 
C      -3.00784737      -0.82426906       0.26251057        6 
C      -1.55907366      -0.85335252       0.78656669        6 
O      -1.41206512       0.46465588       1.31974621        8 
H      -0.78350409       0.80665759      -1.88431975        1 
H      -1.13493180      -1.35539443      -1.27226476        1 
H       2.75186199      -2.74413464       0.92769548        1 
H       1.96836959       3.33299728       0.90368764        1 
H      -1.65678294       2.24975030       0.29524324        1 
H      -3.86538203       1.20369053       0.09648626        1 
H      -3.17572106       0.62710465      -1.42238878        1 
H      -3.70672511      -0.92979430       1.09374233        1 
H      -3.21698700      -1.60974158      -0.46502448        1 
H      -1.33256410      -1.59602133       1.54754708        1 
H       3.12626968      -2.48918158      -0.79245011        1 
H       3.72665294      -1.32463901       0.43172904        1 
H       3.12016118       2.12901235       0.28298933        1 
H       2.56951464       2.03781175       1.98656629        1 
