29
Lattice="0.0 0.0 0.0 0.0 0.0 0.0 0.0 0.0 0.0" Properties=species:S:1:pos:R:3:Z:I:1 pbc="F F F"
C      -0.77651919      -0.28925813      -0.69815903        6 
C       0.74943233      -0.38506604      -0.46569327        6 
C      -1.48611591       0.84260123       0.03329839        6 
C       1.54600169       0.90105009      -0.41401937        6 
O      -2.77733461       0.89185009      -0.38220450        8 
O      -1.02672006       1.58045356       0.86127851        8 
O       2.78275769       0.65957248       0.08084165        8 
O       1.17848788       1.98287442      -0.78960293        8 
C       3.66235998       1.79783105       0.15316327        6 
C      -3.60300872       1.88560483       0.25160265        6 
C      -1.19961956      -1.59717062       0.04876562        6 
C      -0.57094958      -2.85559871      -0.60379485        6 
C       0.87093551      -2.83224117      -0.00350116        6 
C       0.85437485      -1.45055269       0.67694295        6 
O      -0.45525371      -1.44894788       1.26803491        8 
H      -1.06349083      -0.28244840      -1.74877892        1 
H       1.16568583      -0.85473559      -1.36651468        1 
H       3.83433291       2.21155539      -0.84178668        1 
H      -3.18792133       2.88205623       0.09422600        1 
H      -2.26246121      -1.66240739       0.26685728        1 
H      -1.11599233      -3.75260217      -0.30836909        1 
H      -0.58266972      -2.80071801      -1.69477899        1 
H       1.00007995      -3.61673910       0.74365693        1 
H       1.65763713      -2.93260939      -0.75383365        1 
H       1.61046420      -1.25613791       1.43070812        1 
H       3.23119716       2.56881850       0.79310312        1 
H       4.59032866       1.42060779       0.57722873        1 
H      -3.67697820       1.69294257       1.32332641        1 
H      -4.57884744       1.79686669      -0.22128023        1 
