29
Lattice="0.0 0.0 0.0 0.0 0.0 0.0 0.0 0.0 0.0" Properties=species:S:1:pos:R:3:Z:I:1 pbc="F F F"
C      -0.31797772      -0.69133974       0.58503997        6 
C      -0.68997221       0.81726744       0.46378093        6 
C       0.94229362      -1.11695111      -0.14146842        6 
C       0.39821803       1.79922098       0.07487619        6 
O       1.50399577      -2.17351551       0.49217566        8 
O       1.36522657      -0.65934567      -1.17189397        8 
O       1.56388269       1.49184164       0.67703900        8 
O       0.21250876       2.81590898      -0.54615232        8 
C       2.67401711       2.36275660       0.39403065        6 
C       2.65675651      -2.74963709      -0.14958766        6 
C      -1.54131172      -1.31554025      -0.16746019        6 
C      -2.82971781      -1.12007043       0.66823812        6 
C      -3.15986849       0.37569758       0.36843239        6 
C      -1.92952375       0.77723841      -0.47048597        6 
O      -1.71157040      -0.40586965      -1.25628023        8 
H      -0.25958410      -1.03046390       1.61763060        1 
H      -0.99329842       1.17242185       1.45503472        1 
H       2.90120346       2.34055977      -0.67254545        1 
H       3.46182517      -2.01607529      -0.21453362        1 
H      -1.37375539      -2.32211328      -0.54541078        1 
H      -3.61824564      -1.78410938       0.31191561        1 
H      -2.67076627      -1.32308916       1.72934186        1 
H      -4.06580628       0.46565681      -0.23243703        1 
H      -3.28298685       0.98173047       1.26814050        1 
H      -2.03531561       1.64391526      -1.11629929        1 
H       2.44659771       3.38549538       0.69777951        1 
H       3.50716759       1.96662866       0.97044419        1 
H       2.40344738      -3.09287568      -1.15389370        1 
H       2.95083047      -3.58670558       0.47979291        1 
