29
Lattice="0.0 0.0 0.0 0.0 0.0 0.0 0.0 0.0 0.0" Properties=species:S:1:pos:R:3:Z:I:1 pbc="F F F"
C       0.70182553      -0.86916121      -0.59724156        6 
C       0.54620853       0.68949225      -0.82519705        6 
C      -0.60184242      -1.62940162      -0.47246600        6 
C      -0.86939232       1.20056408      -0.58313992        6 
O      -1.13246954      -1.52260290       0.76242394        8 
O      -1.12959396      -2.21874993      -1.38145646        8 
O      -0.95468750       2.06321493       0.44260541        8 
O      -1.81286419       0.88605378      -1.26823996        8 
C      -2.27257007       2.55930192       0.74146550        6 
C      -2.43803816      -2.10506883       0.93537508        6 
C       1.65872077      -0.89173967       0.63134652        6 
C       3.09715267      -0.67400879       0.12183134        6 
C       3.02466317       0.82649889      -0.29776849        6 
C       1.60152464       1.20921516       0.17888392        6 
O       1.38590945       0.34354527       1.30386816        8 
H       1.18739670      -1.30222971      -1.47154874        1 
H       0.77910836       0.93663155      -1.86243618        1 
H      -2.67412129       3.11567132      -0.10686186        1 
H      -2.40445303      -3.18099342       0.75741525        1 
H       1.50696103      -1.72370107       1.31391585        1 
H       3.80780358      -0.82319179       0.93610857        1 
H       3.36886219      -1.34257593      -0.69723557        1 
H       3.77524137       1.42475376       0.21983872        1 
H       3.15652674       0.97650875      -1.37164688        1 
H       1.46711338       2.24281997       0.48132706        1 
H      -2.94218615       1.73114603       0.97745982        1 
H      -2.14708883       3.20851573       1.60482741        1 
H      -3.14503622      -1.64663666       0.24243479        1 
H      -2.71278697      -1.89565441       1.96688955        1 
