29
Lattice="0.0 0.0 0.0 0.0 0.0 0.0 0.0 0.0 0.0" Properties=species:S:1:pos:R:3:Z:I:1 pbc="F F F"
C      -0.26502167      -0.71586206       0.58662251        6 
C      -0.70702715       0.76898255       0.43898024        6 
C       0.99093293      -1.15223667      -0.14665031        6 
C       0.28755604       1.88514541       0.18601535        6 
O       1.63814687      -2.09297545       0.58801994        8 
O       1.35237925      -0.80285646      -1.23856819        8 
O       1.56681200       1.50612523       0.31621119        8 
O      -0.05720731       3.03737927       0.06000805        8 
C       2.55803466       2.54118521       0.18107369        6 
C       2.80077782      -2.67472796      -0.02808301        6 
C      -1.47509265      -1.39718718      -0.14324562        6 
C      -2.78029833      -1.18839933       0.66591233        6 
C      -3.16000591       0.27077556       0.26198283        6 
C      -1.91209794       0.66660325      -0.55003697        6 
O      -1.64491241      -0.54055041      -1.27554185        8 
H      -0.18720015      -1.02213953       1.62804137        1 
H      -1.11004315       1.07275294       1.41142598        1 
H       2.49394924       2.99593892      -0.80798321        1 
H       3.54615815      -1.90590701      -0.23711558        1 
H      -1.28655223      -2.41623992      -0.47474493        1 
H      -3.54215277      -1.90420654       0.35470490        1 
H      -2.62351456      -1.31080160       1.73986726        1 
H      -4.04083552       0.28419324      -0.38156379        1 
H      -3.34674918       0.92664955       1.11421795        1 
H      -2.01774540       1.50533580      -1.23218222        1 
H       2.41480668       3.30853621       0.94328083        1 
H       3.51495220       2.04077643       0.30992590        1 
H       2.53075362      -3.17243084      -0.96096354        1 
H       3.18323482      -3.39379812       0.69323337        1 
