29
Lattice="0.0 0.0 0.0 0.0 0.0 0.0 0.0 0.0 0.0" Properties=species:S:1:pos:R:3:Z:I:1 pbc="F F F"
C      -0.60692515       0.52690669      -0.82742538        6 
C      -0.50868807      -0.98869121      -0.37160966        6 
C       0.66428627       1.33425899      -0.63042928        6 
C       0.81955729      -1.37170356       0.25576400        6 
O       0.79399868       1.78640088       0.62673207        8 
O       1.47340325       1.53716912      -1.50467898        8 
O       1.73176703      -1.59973657      -0.71215488        8 
O       1.05415612      -1.46211563       1.43387346        8 
C       3.06807567      -1.90380136      -0.27280907        6 
C       1.99341180       2.52443813       0.92149933        6 
C      -1.83000191       0.98584591       0.01446043        6 
C      -3.11758265       0.40600233      -0.61546639        6 
C      -3.01980986      -1.08577038      -0.16930132        6 
C      -1.69359475      -1.06990587       0.62233020        6 
O      -1.70068330       0.23102490       1.22247467        8 
H      -0.80764764       0.57137539      -1.89752496        1 
H      -0.65100877      -1.63251838      -1.24063138        1 
H       3.46783922      -1.08104268       0.32174825        1 
H       2.03840927       3.43506471       0.32174890        1 
H      -1.84952241       2.04775550       0.24562292        1 
H      -3.99661738       0.89240445      -0.19043387        1 
H      -3.15141070       0.53107683      -1.69941729        1 
H      -3.84610978      -1.35958757       0.48780364        1 
H      -3.00533478      -1.78660046      -1.00679769        1 
H      -1.57835901      -1.82655388       1.39358812        1 
H       3.07438897      -2.81633730       0.32526153        1 
H       3.64885667      -2.03373766      -1.18280633        1 
H       2.87500972       1.91575805       0.71548104        1 
H       1.93091112       2.76166440       1.98070652        1 
