29
Lattice="0.0 0.0 0.0 0.0 0.0 0.0 0.0 0.0 0.0" Properties=species:S:1:pos:R:3:Z:I:1 pbc="F F F"
C      -0.63966512      -0.87993107       0.58175662        6 
C      -0.56623417       0.68133258       0.76630396        6 
C       0.57326219      -1.70106496       0.16889399        6 
C       0.78381004       1.36275781       0.61187051        6 
O       1.73325757      -1.03391372       0.18843128        8 
O       0.48528501      -2.87732293      -0.09509923        8 
O       1.08836138       1.61725164      -0.67287704        8 
O       1.47060745       1.70457172       1.54462047        8 
C       2.36381828       2.23268285      -0.90832907        6 
C       2.91295031      -1.78878051      -0.14913215        6 
C      -1.76779085      -1.00206503      -0.48372101        6 
C      -3.13529725      -0.67338340       0.15052019        6 
C      -3.03952848       0.87708392       0.28169999        6 
C      -1.62763011       1.13272866      -0.28510717        6 
O      -1.51500411       0.13829738      -1.31414541        8 
H      -0.95459959      -1.34317814       1.52055225        1 
H      -0.88410569       0.93291778       1.77796314        1 
H       2.42131091       3.20454871      -0.41529507        1 
H       2.83927349      -2.16497111      -1.17026491        1 
H      -1.71968723      -1.91643207      -1.06815598        1 
H      -3.94021550      -0.96618072      -0.52488622        1 
H      -3.29215425      -1.18244821       1.10363690        1 
H      -3.78900374       1.37524954      -0.33483794        1 
H      -3.15226950       1.23381852       1.30733178        1 
H      -1.45507582       2.11804399      -0.70876381        1 
H       3.16530644       1.59433790      -0.53226307        1 
H       2.43722501       2.34432069      -1.98790985        1 
H       3.03619152      -2.62661644       0.53789687        1 
H       3.73935356      -1.08870516      -0.05272075        1 
