29
Lattice="0.0 0.0 0.0 0.0 0.0 0.0 0.0 0.0 0.0" Properties=species:S:1:pos:R:3:Z:I:1 pbc="F F F"
C       0.43043621       1.01491943       0.29936435        6 
C       0.58220381      -0.45678463       0.87138301        6 
C      -0.93949626       1.28655377      -0.28432804        6 
C      -0.63907013      -1.32422232       0.59944496        6 
O      -1.72545017       1.89187744       0.62676893        8 
O      -1.30222313       0.99342220      -1.39724547        8 
O      -0.47911752      -2.14841830      -0.44223319        8 
O      -1.64298005      -1.27622864       1.27347207        8 
C      -1.62219688      -2.94083140      -0.81369717        6 
C      -3.10845034       2.05813175       0.25966270        6 
C       1.58926210       1.04715520      -0.73536088        6 
C       2.91300147       1.27191357       0.02441513        6 
C       3.08462884      -0.11553220       0.71795108        6 
C       1.87556227      -0.89261014       0.14274665        6 
O       1.70743189      -0.31519853      -1.15828849        8 
H       0.59214024       1.73153887       1.10405625        1 
H       0.69077811      -0.42494910       1.95567914        1 
H      -1.94537242      -3.56429846       0.02110238        1 
H      -3.57033387       1.08149164       0.10807315        1 
H       1.40736423       1.68338245      -1.59790898        1 
H       3.72039486       1.46234342      -0.68389472        1 
H       2.86914881       2.10727132       0.72620403        1 
H       4.01922955      -0.59524214       0.42558421        1 
H       3.06236218      -0.05630416       1.80825330        1 
H       2.00380705      -1.96743303       0.05133787        1 
H      -2.44106030      -2.29017364      -1.12321639        1 
H      -1.28733378      -3.55280502      -1.64790061        1 
H      -3.19592374       2.65075018      -0.65188919        1 
H      -3.57074965       2.57123483       1.09976419        1 
