29
Lattice="0.0 0.0 0.0 0.0 0.0 0.0 0.0 0.0 0.0" Properties=species:S:1:pos:R:3:Z:I:1 pbc="F F F"
C      -0.85239790       0.55251961      -0.81322850        6 
C      -0.16114288      -0.81042423      -0.53388402        6 
C      -0.16656416       1.83805183      -0.37380831        6 
C       1.35271714      -0.83651013      -0.55595322        6 
O       0.75856083       1.66053943       0.57681952        8 
O      -0.53481275       2.92431527      -0.75843630        8 
O       1.82793340      -1.88413919       0.15185856        8 
O       2.05450043      -0.07162588      -1.16749553        8 
C       3.25827585      -2.05371427       0.14592194        6 
C       1.37236296       2.85149468       1.09794395        6 
C      -2.09337245       0.38534593       0.12742744        6 
C      -2.99859921      -0.77661517      -0.35168606        6 
C      -2.22696321      -2.01754435       0.19730155        6 
C      -0.94247678      -1.33736680       0.70930591        6 
O      -1.47300619      -0.14422603       1.30843002        8 
H      -1.13716348       0.68373167      -1.85572337        1 
H      -0.40374713      -1.46911276      -1.37774158        1 
H       3.61776356      -2.22323493      -0.87012390        1 
H       0.62305544       3.49212216       1.56547225        1 
H      -2.60397567       1.31742906       0.35644254        1 
H      -3.99167640      -0.69225790       0.09103919        1 
H      -3.11553977      -0.78782139      -1.43751316        1 
H      -2.76131420      -2.47875493       1.02933152        1 
H      -2.03893344      -2.78319672      -0.55768150        1 
H      -0.34866917      -1.88886750       1.43113274        1 
H       3.74648202      -1.16930747       0.55720096        1 
H       3.44902386      -2.92350102       0.77071565        1 
H       1.87165582       3.40067822       0.29867477        1 
H       2.09422880       2.50560550       1.83434660        1 
