29
Lattice="0.0 0.0 0.0 0.0 0.0 0.0 0.0 0.0 0.0" Properties=species:S:1:pos:R:3:Z:I:1 pbc="F F F"
C      -0.55941138       0.67667459      -0.79112524        6 
C      -0.63652695      -0.87456839      -0.54815009        6 
C       0.77668313       1.37717954      -0.59672939        6 
C       0.58546285      -1.70471672      -0.19072419        6 
O       1.07349783       1.57800755       0.69800110        8 
O       1.45203616       1.78755947      -1.51079097        8 
O       1.74138956      -1.02961207      -0.17982649        8 
O       0.50702772      -2.89530738       0.00416525        8 
C       2.92863421      -1.79595684       0.10136742        6 
C       2.33118223       2.21734224       0.96282698        6 
C      -1.64780766       1.15915986       0.21826924        6 
C      -3.05021971       0.82247463      -0.33481298        6 
C      -3.11840999      -0.71252429      -0.06830741        6 
C      -1.73114560      -0.95977349       0.55925983        6 
O      -1.50498981       0.23818870       1.30889255        8 
H      -0.84118717       0.89928279      -1.81955068        1 
H      -1.00203810      -1.35898045      -1.45753329        1 
H       2.87563619      -2.21517335       1.10697989        1 
H       2.36296533       3.21074097       0.51211025        1 
H      -1.51209020       2.17584587       0.57748544        1 
H      -3.81555548       1.35811448       0.22857107        1 
H      -3.15995313       1.08632471      -1.38865747        1 
H      -3.90220176      -0.95538877       0.65030189        1 
H      -3.28812201      -1.30387715      -0.96989848        1 
H      -1.64355407      -1.83262270       1.20033941        1 
H       3.03879848      -2.60374269      -0.62274560        1 
H       3.75209003      -1.09065050       0.01913171        1 
H       3.15036049       1.61802929       0.56113521        1 
H       2.40013424       2.28408617       2.04632858        1 
