29
Lattice="0.0 0.0 0.0 0.0 0.0 0.0 0.0 0.0 0.0" Properties=species:S:1:pos:R:3:Z:I:1 pbc="F F F"
C       0.73076791      -0.80918014      -0.56874500        6 
C       0.53324277       0.73557462      -0.79106682        6 
C      -0.44309021      -1.74315161      -0.35108782        6 
C      -0.86279252       1.32197431      -0.63698215        6 
O      -1.50316009      -1.17554083       0.24149449        8 
O      -0.39945999      -2.91129601      -0.66148237        8 
O      -1.20264774       1.55729264       0.63838285        8 
O      -1.53808184       1.66497412      -1.58068738        8 
C      -2.50953427       2.11120184       0.85053527        6 
C      -2.63034878      -2.03478209       0.49771945        6 
C       1.71985160      -0.81845308       0.64611189        6 
C       3.13526460      -0.48913313       0.12853193        6 
C       2.98133830       1.03231895      -0.18060969        6 
C       1.52637982       1.28625342       0.27754365        6 
O       1.36302198       0.36241712       1.36334854        8 
H       1.23230701      -1.23169014      -1.43898838        1 
H       0.83528015       0.99643002      -1.80459013        1 
H      -2.60955441       3.07472527       0.34793081        1 
H      -2.33709306      -2.86355612       1.14308846        1 
H       1.63789962      -1.69067129       1.29066009        1 
H       3.87018732      -0.66122779       0.91615046        1 
H       3.41887919      -1.08589001      -0.73974949        1 
H       3.67520970       1.63136918       0.41044866        1 
H       3.13498516       1.27752823      -1.23339088        1 
H       1.30819461       2.29378290       0.62059920        1 
H      -3.27348485       1.43001379       0.47072622        1 
H      -2.60253005       2.22764476       1.92813359        1 
H      -3.02850647      -2.42762416      -0.43869829        1 
H      -3.36455057      -1.40404992       0.99379224        1 
