29
Lattice="0.0 0.0 0.0 0.0 0.0 0.0 0.0 0.0 0.0" Properties=species:S:1:pos:R:3:Z:I:1 pbc="F F F"
C       0.46192982      -0.73768563       0.55738400        6 
C      -0.96824506      -0.13774132       0.78571432        6 
C       1.58356580       0.22278068       0.21533078        6 
C      -1.13361394       1.36550235       0.60035098        6 
O       2.75783445      -0.45014212       0.21580042        8 
O       1.49735959       1.39772945      -0.03407423        8 
O      -1.24663844       1.71805485      -0.68724858        8 
O      -1.26128144       2.13197888       1.52624105        8 
C      -1.31383057       3.12875229      -0.95153900        6 
C       3.92991849       0.32150637      -0.10976056        6 
C       0.18117024      -1.77874044      -0.57464104        6 
C      -0.53197700      -3.00235719       0.03963149        6 
C      -1.95691400      -2.41874483       0.28560643        6 
C      -1.78371495      -0.97765117      -0.24473436        6 
O      -0.85603022      -1.15038896      -1.32762826        8 
H       0.79324556      -1.26246324       1.45574274        1 
H      -1.28999303      -0.33320010       1.80779483        1 
H      -2.16515880       3.57848604      -0.43815347        1 
H       4.06752003       1.12613170       0.61393899        1 
H       1.03341234      -1.99472645      -1.21384423        1 
H      -0.55650391      -3.82194872      -0.68016589        1 
H      -0.04504143      -3.36213877       0.94779911        1 
H      -2.70894712      -2.94794942      -0.30106587        1 
H      -2.26128666      -2.44711192       1.33358366        1 
H      -2.68526215      -0.49423733      -0.61048658        1 
H      -0.39112412       3.60741003      -0.62034251        1 
H      -1.42422603       3.21518283      -2.03031391        1 
H       3.83982777       0.74798540      -1.10983938        1 
H       4.75937499      -0.38064029      -0.06491079        1 
