29
Lattice="0.0 0.0 0.0 0.0 0.0 0.0 0.0 0.0 0.0" Properties=species:S:1:pos:R:3:Z:I:1 pbc="F F F"
C      -0.59784484       0.59358873      -0.69176258        6 
C      -0.56621213      -0.98107080      -0.66302056        6 
C       0.72903582       1.32960033      -0.68928502        6 
C       0.62102739      -1.69309730      -0.00888741        6 
O       0.98416092       1.93372933       0.48815584        8 
O       1.47439695       1.36831568      -1.63610519        8 
O       1.79046590      -1.07462471      -0.22049714        8 
O       0.51950050      -2.72333580       0.61185097        8 
C       2.95695939      -1.69649966       0.34998930        6 
C       2.25129832       2.60821195       0.58408933        6 
C      -1.64110257       0.89760194       0.42454762        6 
C      -3.04464083       0.78624314      -0.20068601        6 
C      -3.11172992      -0.75028729      -0.46101433        6 
C      -1.81296718      -1.23754108       0.22294691        6 
O      -1.59836859      -0.26717961       1.26335390        8 
H      -1.02140264       0.87172134      -1.66030151        1 
H      -0.66099354      -1.38940147      -1.67209849        1 
H       2.87247842      -1.72994214       1.43708288        1 
H       2.32618866       3.39208307      -0.17089414        1 
H      -1.43926042       1.78477149       1.01676969        1 
H      -3.80071087       1.09914380       0.52104664        1 
H      -3.16115795       1.38698832      -1.10509988        1 
H      -3.98304357      -1.20084292       0.01544531        1 
H      -3.14252753      -1.00596481      -1.52284805        1 
H      -1.84233356      -2.23466490       0.64989432        1 
H       3.07361766      -2.71044712      -0.03447508        1 
H       3.79266782      -1.07127627       0.04403490        1 
H       3.06610941       1.89637330       0.44296567        1 
H       2.27968778       3.03238417       1.58525503        1 
