29
Lattice="0.0 0.0 0.0 0.0 0.0 0.0 0.0 0.0 0.0" Properties=species:S:1:pos:R:3:Z:I:1 pbc="F F F"
C      -0.58674107      -0.95293542       0.61431418        6 
C      -0.61114530       0.62124238       0.72154090        6 
C       0.63079848      -1.63624556      -0.00785370        6 
C       0.71970699       1.34550641       0.65467334        6 
O       1.78807873      -1.06888580       0.36214496        8 
O       0.56624834      -2.61663557      -0.70834935        8 
O       1.02205970       1.74339213      -0.59675550        8 
O       1.43263794       1.53445950       1.60883675        8 
C       2.30393881       2.37266153      -0.76385202        6 
C       2.99071121      -1.66502951      -0.15810263        6 
C      -1.81136725      -1.17424306      -0.30746651        6 
C      -3.12352779      -0.76417736       0.39816396        6 
C      -3.07404925       0.78897911       0.26755112        6 
C      -1.67867136       0.97174502      -0.35973909        6 
O      -1.61349924      -0.13008909      -1.27633459        8 
H      -0.71395579      -1.40118433       1.60341495        1 
H      -0.99003961       0.87352378       1.71349819        1 
H       2.36924085       3.27821743      -0.15884905        1 
H       2.99851483      -1.60744083      -1.24758501        1 
H      -1.81330823      -2.14047863      -0.80155897        1 
H      -3.98299323      -1.18310671      -0.12617906        1 
H      -3.16344241      -1.10734469       1.43451565        1 
H      -3.84159410       1.15296415      -0.41729601        1 
H      -3.18889587       1.31092595       1.21981119        1 
H      -1.50386137       1.90248662      -0.89149958        1 
H       3.10019878       1.68728635      -0.46882177        1 
H       2.37456548       2.61142286      -1.82271714        1 
H       3.06177733      -2.70935608       0.14835403        1 
H       3.80524743      -1.08350673       0.26765455        1 
