29
Lattice="0.0 0.0 0.0 0.0 0.0 0.0 0.0 0.0 0.0" Properties=species:S:1:pos:R:3:Z:I:1 pbc="F F F"
C      -0.57900292       0.63461471      -0.78870559        6 
C      -0.57942969      -0.90090122      -0.46588630        6 
C       0.68825003       1.42018176      -0.50092982        6 
C       0.70956785      -1.59381449      -0.05990595        6 
O       1.02150669       1.39589113       0.80162233        8 
O       1.29359073       2.04785172      -1.33663577        8 
O       1.79736899      -0.99561236      -0.57447931        8 
O       0.74375546      -2.64246026       0.53693189        8 
C       3.06336942      -1.63325069      -0.32357440        6 
C       2.22196848       2.09951524       1.15905697        6 
C      -1.76461030       1.08859240       0.12279490        6 
C      -3.10102480       0.60918073      -0.49050634        6 
C      -3.07612502      -0.90580910      -0.11878189        6 
C      -1.70978104      -1.00769609       0.59233027        6 
O      -1.62185381       0.25001700       1.27490667        8 
H      -0.79113652       0.80989423      -1.84199193        1 
H      -0.87094378      -1.44346880      -1.37158216        1 
H       3.25499015      -1.68304772       0.74923103        1 
H       2.15036192       3.15196988       0.88087199        1 
H      -1.73230183       2.13384870       0.42204877        1 
H      -3.93840776       1.12282033      -0.01621700        1 
H      -3.15768416       0.79044786      -1.56558958        1 
H      -3.87999847      -1.15830213       0.57363496        1 
H      -3.15140479      -1.56601327      -0.98491919        1 
H      -1.58419975      -1.82836447       1.29251029        1 
H       3.06996370      -2.64245144      -0.73778328        1 
H       3.80217988      -1.00828683      -0.81985901        1 
H       3.08329682       1.65511086       0.65626075        1 
H       2.31017599       1.99154009       2.23785428        1 
