29
Lattice="0.0 0.0 0.0 0.0 0.0 0.0 0.0 0.0 0.0" Properties=species:S:1:pos:R:3:Z:I:1 pbc="F F F"
C      -0.42142204       0.47189663      -0.74573888        6 
C      -0.22129883      -0.99605274      -0.28976042        6 
C       0.42465722       1.48856869       0.02327076        6 
C       1.15387401      -1.53493919       0.04261539        6 
O      -0.03577198       2.73925967      -0.20896581        8 
O       1.39216514       1.26238478       0.70172292        8 
O       2.10232567      -0.97456384      -0.72772040        8 
O       1.34009295      -2.51383492       0.72608420        8 
C       3.43809422      -1.47825318      -0.55673975        6 
C       0.66990166       3.80294553       0.45661417        6 
C      -1.88873770       0.65384371      -0.24547530        6 
C      -2.86107851      -0.36136751      -0.89890548        6 
C      -2.61286115      -1.63926612      -0.03524582        6 
C      -1.36855403      -1.18820744       0.74693337        6 
O      -1.74063597       0.15891961       1.09999128        8 
H      -0.28898264       0.62431753      -1.81733839        1 
H      -0.46316577      -1.61691987      -1.16218824        1 
H       3.77700710      -1.29598104       0.46389617        1 
H       1.70950842       3.83600929       0.12679820        1 
H      -2.22963580       1.68387408      -0.22609426        1 
H      -3.89101510      -0.01235208      -0.81877767        1 
H      -2.64290350      -0.51368935      -1.95873011        1 
H      -3.44199399      -1.81817499       0.65075428        1 
H      -2.44929736      -2.54226699      -0.62657483        1 
H      -1.09714296      -1.75524062       1.63219309        1 
H       3.47616374      -2.54808598      -0.76801638        1 
H       4.04911002      -0.92260032      -1.26462306        1 
H       0.63935466       3.65887563       1.53739882        1 
H       0.14938519       4.71593184       0.17583477        1 
