29
Lattice="0.0 0.0 0.0 0.0 0.0 0.0 0.0 0.0 0.0" Properties=species:S:1:pos:R:3:Z:I:1 pbc="F F F"
C      -0.54375515       0.69775764      -0.81030451        6 
C      -0.65466097      -0.83373001      -0.49158181        6 
C       0.74184742       1.48311016      -0.59268864        6 
C       0.54757821      -1.75167069      -0.36866352        6 
O       1.21024739       1.42719105       0.65810242        8 
O       1.19344813       2.22246692      -1.43998960        8 
O       1.64330724      -1.19761415       0.16462532        8 
O       0.49662077      -2.90726088      -0.72647529        8 
C       2.78693033      -2.06194140       0.30581669        6 
C       2.38210047       2.21028259       0.93184368        6 
C      -1.62924820       1.23121926       0.18568610        6 
C      -3.03870436       0.76433020      -0.25770324        6 
C      -3.05146772      -0.70702756       0.26141112        6 
C      -1.59977011      -0.83414611       0.76363784        6 
O      -1.37557053       0.44592038       1.35564190        8 
H      -0.81682274       0.88643824      -1.84677806        1 
H      -1.19938587      -1.29288854      -1.31707610        1 
H       2.55473458      -2.89327307       0.97273376        1 
H       2.19324824       3.26879064       0.74524339        1 
H      -1.53973116       2.28854601       0.42466291        1 
H      -3.80897386       1.36684764       0.22485366        1 
H      -3.17866216       0.83978406      -1.33782915        1 
H      -3.74421586      -0.82573247       1.09597149        1 
H      -3.30738841      -1.44013006      -0.50497387        1 
H      -1.40672620      -1.62264376       1.48716071        1 
H       3.09085905      -2.45364050      -0.66570380        1 
H       3.56790490      -1.43545087       0.73096820        1 
H       3.21346286       1.88065239       0.30589653        1 
H       2.60255900       2.03882866       1.98313553        1 
