29
Lattice="0.0 0.0 0.0 0.0 0.0 0.0 0.0 0.0 0.0" Properties=species:S:1:pos:R:3:Z:I:1 pbc="F F F"
C      -0.61888482       0.81381106      -0.66780003        6 
C      -0.43128175      -0.74537130      -0.70840448        6 
C       0.65197275       1.64418285      -0.58593349        6 
C       0.92372600      -1.26407159      -0.24192917        6 
O       0.96642966       1.98047950       0.67600488        8 
O       1.27569904       1.99461996      -1.55770433        8 
O       0.84905864      -2.58356159       0.03599058        8 
O       1.95044575      -0.63758910      -0.18064322        8 
C       2.07924698      -3.21650962       0.43740642        6 
C       2.22391900       2.65798507       0.84696195        6 
C      -1.64033211       0.95968833       0.49989164        6 
C      -3.05062955       0.68294656      -0.05373368        6 
C      -2.95276426      -0.84859132      -0.32682740        6 
C      -1.56243718      -1.17659187       0.26584977        6 
O      -1.40454117      -0.20548122       1.31016780        8 
H      -1.07467761       1.12282804      -1.60946186        1 
H      -0.58227201      -1.13780232      -1.71701493        1 
H       2.82624161      -3.13296789      -0.35325203        1 
H       2.23546855       3.59425643       0.28699884        1 
H      -1.52239259       1.85425906       1.10363640        1 
H      -3.80002235       0.90052080       0.70871302        1 
H      -3.28569757       1.26939913      -0.94384993        1 
H      -3.73100468      -1.40081525       0.20135785        1 
H      -3.02172886      -1.10328221      -1.38691072        1 
H      -1.44744495      -2.17827208       0.66702653        1 
H       2.46430630      -2.75465098       1.34750578        1 
H       1.82265526      -4.25841386       0.61539806        1 
H       3.03536589       2.01580964       0.50209512        1 
H       2.30830214       2.84664408       1.91501346        1 
