29
Lattice="0.0 0.0 0.0 0.0 0.0 0.0 0.0 0.0 0.0" Properties=species:S:1:pos:R:3:Z:I:1 pbc="F F F"
C      -0.59789532       0.63364371      -0.78005484        6 
C      -0.58231843      -0.91176216      -0.48804629        6 
C       0.68427654       1.40353229      -0.52401290        6 
C       0.70898385      -1.56158686      -0.01727882        6 
O       1.02064501       1.40974520       0.77916219        8 
O       1.31185693       1.97648502      -1.38149175        8 
O       1.78584162      -1.02582385      -0.61848539        8 
O       0.75930284      -2.52246396       0.71029758        8 
C       3.06135449      -1.60700981      -0.29112228        6 
C       2.24576494       2.08363447       1.11105550        6 
C      -1.76822293       1.06762005       0.16018598        6 
C      -3.11215466       0.63452042      -0.46724361        6 
C      -3.08961333      -0.90020634      -0.18964626        6 
C      -1.73475440      -1.04789110       0.53699147        6 
O      -1.63741382       0.17856334       1.27493167        8 
H      -0.83694550       0.82025282      -1.82566744        1 
H      -0.82246461      -1.44765416      -1.41209396        1 
H       3.26012945      -1.50135933       0.77653249        1 
H       2.20365877       3.13136052       0.80981993        1 
H      -1.71677226       2.09837827       0.50341913        1 
H      -3.94081629       1.12050645       0.04973604        1 
H      -3.18177140       0.88400602      -1.52787633        1 
H      -3.90591996      -1.19732846       0.46969894        1 
H      -3.14817107      -1.50472719      -1.09704512        1 
H      -1.63001192      -1.89667361       1.20611210        1 
H       3.07801862      -2.66471368      -0.55737149        1 
H       3.78900804      -1.04991668      -0.87665559        1 
H       3.08816384       1.60204807       0.61058357        1 
H       2.34034152       1.99694409       2.19118119        1 
