29
Lattice="0.0 0.0 0.0 0.0 0.0 0.0 0.0 0.0 0.0" Properties=species:S:1:pos:R:3:Z:I:1 pbc="F F F"
C      -0.65040546       0.59758120      -0.76316634        6 
C      -0.52040928      -0.94179423      -0.46336376        6 
C       0.53492010       1.50445126      -0.50388712        6 
C       0.81137661      -1.40322278       0.10333796        6 
O       1.17984434       1.20899818       0.63538515        8 
O       0.82906961       2.43309657      -1.21989436        8 
O       1.76423732      -1.34185754      -0.85491267        8 
O       1.01556925      -1.78325477       1.22628030        8 
C       3.09876546      -1.67700902      -0.43498612        6 
C       2.29571577       2.04730077       0.98102522        6 
C      -1.85918552       0.95807474       0.16675482        6 
C      -3.16213877       0.43801564      -0.47971299        6 
C      -3.02985767      -1.09305696      -0.21250645        6 
C      -1.68157810      -1.14880478       0.53946027        6 
O      -1.68029392       0.08271229       1.27894557        8 
H      -0.90784722       0.76407537      -1.80779205        1 
H      -0.67522444      -1.49813295      -1.39054426        1 
H       3.41890232      -1.00884146       0.36623922        1 
H       1.96472251       3.07464119       1.13942199        1 
H      -1.87782246       1.99284639       0.50265261        1 
H      -4.02739703       0.85791491       0.03511917        1 
H      -3.23961509       0.69252740      -1.53824812        1 
H      -3.83538028      -1.45544015       0.42732076        1 
H      -3.02578238      -1.69246471      -1.12525696        1 
H      -1.53822782      -1.98194194       1.22104357        1 
H       3.14166977      -2.70806412      -0.08073661        1 
H       3.72264869      -1.54794243      -1.31662144        1 
H       3.04451579       2.02997546       0.18728610        1 
H       2.69477198       1.62679177       1.90114342        1 
