29
Lattice="0.0 0.0 0.0 0.0 0.0 0.0 0.0 0.0 0.0" Properties=species:S:1:pos:R:3:Z:I:1 pbc="F F F"
C       0.54868164      -0.64423247      -0.84351529        6 
C       0.46039735       0.83134641      -0.32906304        6 
C      -0.42167426      -1.67277695      -0.25075381        6 
C      -0.88382472       1.41173024       0.05193308        6 
O      -1.59443913      -1.14736353       0.13780496        8 
O      -0.14166163      -2.83722609      -0.10290964        8 
O      -1.72114301       1.37827752      -1.00642440        8 
O      -1.13683233       1.97764455       1.08672333        8 
C      -3.03789076       1.90905991      -0.78943498        6 
C      -2.51062089      -2.04254938       0.79757615        6 
C       1.94342893      -1.00232112      -0.26103185        6 
C       3.06142761      -0.09482482      -0.82904114        6 
C       2.89731810       1.19264598       0.03870886        6 
C       1.57676351       0.86209550       0.75426464        6 
O       1.77111701      -0.52340273       1.08733324        8 
H       0.49007430      -0.70743301      -1.93200918        1 
H       0.76643432       1.46658017      -1.16705409        1 
H      -3.56170083       1.32009530      -0.03420106        1 
H      -2.03341892      -2.49807002       1.66560723        1 
H       2.15093275      -2.06720175      -0.25102646        1 
H       4.03874846      -0.55676935      -0.68703580        1 
H       2.93310815       0.09231500      -1.89793428        1 
H       3.70504503       1.28466072       0.76614053        1 
H       2.85162318       2.11219092      -0.54845922        1 
H       1.32789601       1.43249961       1.64433982        1 
H      -2.98640730       2.94873047      -0.46329791        1 
H      -3.54511087       1.83164770      -1.74883229        1 
H      -2.83881244      -2.82424783       0.11103933        1 
H      -3.34941773      -1.42077125       1.10241781        1 
