29
Lattice="0.0 0.0 0.0 0.0 0.0 0.0 0.0 0.0 0.0" Properties=species:S:1:pos:R:3:Z:I:1 pbc="F F F"
C      -0.00323024      -0.83132857       0.52363616        6 
C      -0.90656362       0.40379192       0.81028916        6 
C       1.49456981      -0.61054195       0.46416088        6 
C      -0.41178930       1.79600803       0.44778816        6 
O       2.10437762      -1.72140095      -0.00964139        8 
O       2.09111624       0.37596486       0.81240809        8 
O       0.29081764       1.82940206      -0.69062468        8 
O      -0.75434511       2.78324806       1.05759135        8 
C       0.74800587       3.12223576      -1.11958667        6 
C       3.54214443      -1.67185815      -0.08081333        6 
C      -0.71854521      -1.49834126      -0.69563344        6 
C      -1.89435937      -2.33520268      -0.15090031        6 
C      -2.84545728      -1.19903957       0.34047618        6 
C      -2.09275112       0.06203943      -0.15180804        6 
O      -1.40357118      -0.40502043      -1.31811015        8 
H      -0.10246249      -1.51273366       1.37690737        1 
H      -1.22549782       0.45326729       1.84943550        1 
H      -0.09607495       3.79564594      -1.27642904        1 
H       3.96699415      -1.49795130       0.90878029        1 
H      -0.06053290      -1.98690792      -1.40766872        1 
H      -2.35070899      -2.90786369      -0.95960001        1 
H      -1.59823812      -3.02824146       0.63892824        1 
H      -3.82561550      -1.26548585      -0.13320055        1 
H      -2.99515317      -1.19760616       1.42221734        1 
H      -2.72118555       0.91256640      -0.40648943        1 
H       1.42029911       3.54976171      -0.37420093        1 
H       1.27589801       2.94513553      -2.05404056        1 
H       3.86118751      -0.87508194      -0.75426212        1 
H       3.84638608      -2.64293299      -0.46496133        1 
