29
Lattice="0.0 0.0 0.0 0.0 0.0 0.0 0.0 0.0 0.0" Properties=species:S:1:pos:R:3:Z:I:1 pbc="F F F"
C       0.38098278       1.01385374       0.38817978        6 
C       0.44539269      -0.51398265       0.69166714        6 
C      -0.95059826       1.59782524      -0.04471888        6 
C      -0.60500459      -1.35768738      -0.01653177        6 
O      -1.90201596       1.31266328       0.86828838        8 
O      -1.11391099       2.34125450      -0.97890497        8 
O      -0.38646490      -2.66632476       0.24398445        8 
O      -1.51840695      -0.96477653      -0.69577939        8 
C      -1.30126571      -3.59627036      -0.36694178        6 
C      -3.23803392       1.72849346       0.53573807        6 
C       1.55764945       1.19741189      -0.60715989        6 
C       2.85570406       1.33480356       0.20883541        6 
C       2.97184352      -0.10557640       0.79731784        6 
C       1.82929227      -0.83524727       0.04941802        6 
O       1.72020981      -0.11285436      -1.18543531        8 
H       0.60060241       1.54509849       1.32015042        1 
H       0.40904269      -0.74409710       1.75717978        1 
H      -2.32425606      -3.39011343      -0.04886458        1 
H      -3.57190401       1.20362048      -0.36075326        1 
H       1.37580504       1.93072310      -1.38673001        1 
H       3.69245675       1.55898168      -0.45434534        1 
H       2.80364758       2.11390147       0.97211097        1 
H       3.93432384      -0.56068207       0.56145685        1 
H       2.84153355      -0.13892776       1.88143553        1 
H       1.99478663      -1.89048966      -0.14820611        1 
H      -1.24166120      -3.52848535      -1.45413156        1 
H      -0.98449023      -4.57952683      -0.02608375        1 
H      -3.27788152       2.80548275       0.36745386        1 
H      -3.85071164       1.44991394       1.39058134        1 
