29
Lattice="0.0 0.0 0.0 0.0 0.0 0.0 0.0 0.0 0.0" Properties=species:S:1:pos:R:3:Z:I:1 pbc="F F F"
C      -0.72649724       0.64527008       0.66700553        6 
C       0.80754295       0.34514375       0.69047710        6 
C      -1.62155540      -0.58205385       0.63059395        6 
C       1.21664752      -0.99309383       0.09651516        6 
O      -2.33929095      -0.67352764      -0.50048345        8 
O      -1.70540951      -1.35714664       1.55229428        8 
O       2.55929049      -1.13244005       0.16729274        8 
O       0.48940919      -1.83141133      -0.37042185        8 
C       3.09418810      -2.35692164      -0.37175815        6 
C      -3.12815394      -1.86860802      -0.64755738        6 
C      -0.82451596       1.68508415      -0.48635515        6 
C      -0.45934439       3.06736966       0.08662595        6 
C       1.06355140       2.86884747       0.35928797        6 
C       1.30463846       1.47331209      -0.26387064        6 
O       0.32331899       1.39620327      -1.30631590        8 
H      -0.98418592       1.12038891       1.61710000        1 
H       1.23801432       0.42293441       1.68917039        1 
H       2.66519180      -3.21786055       0.14275525        1 
H      -3.85699842      -1.95062217       0.16007564        1 
H      -1.72797249       1.62409011      -1.08403863        1 
H      -0.62723698       3.84011776      -0.66486461        1 
H      -1.03118562       3.32608808       0.97979773        1 
H       1.66481555       3.62237129      -0.15075894        1 
H       1.31957990       2.89765044       1.42085875        1 
H       2.29773952       1.30488494      -0.67124410        1 
H       2.87603773      -2.42893445      -1.43838753        1 
H       4.16728372      -2.30337399      -0.20249408        1 
H      -2.47523928      -2.74223433      -0.64100730        1 
H      -3.62765064      -1.76857352      -1.60877941        1 
