29
Lattice="0.0 0.0 0.0 0.0 0.0 0.0 0.0 0.0 0.0" Properties=species:S:1:pos:R:3:Z:I:1 pbc="F F F"
C      -0.38979497      -0.68907628       0.53427440        6 
C      -0.65266873       0.85760980       0.57445366        6 
C       0.91307625      -1.13281787      -0.09254868        6 
C       0.46678062       1.72813719       0.02531563        6 
O       1.37992690      -2.23490689       0.53990459        8 
O       1.44869755      -0.64488599      -1.05515263        8 
O       1.55281738       1.63942924       0.82479214        8 
O       0.40815214       2.42053069      -0.95593377        8 
C       2.73776663       2.30042210       0.34233808        6 
C       2.57192515      -2.82086778      -0.01604446        6 
C      -1.60220466      -1.15559408      -0.34057503        6 
C      -2.88807869      -1.10020741       0.51341901        6 
C      -3.14453184       0.43817305       0.55727622        6 
C      -1.94842160       0.96266647      -0.26616981        6 
O      -1.76877545      -0.07041212      -1.25041243        8 
H      -0.44428918      -1.12308044       1.53121611        1 
H      -0.81199471       1.16703684       1.61001686        1 
H       3.02814767       1.87874876      -0.62099357        1 
H       3.39617141      -2.10680002       0.01340645        1 
H      -1.43673163      -2.08067242      -0.88928442        1 
H      -3.69816122      -1.62544259       0.00551781        1 
H      -2.75752311      -1.54819661       1.50048328        1 
H      -4.08283701       0.69720206       0.06546115        1 
H      -3.16945660       0.84251571       1.57129176        1 
H      -2.08025363       1.91866542      -0.76390751        1 
H       2.56297059       3.37176347       0.23375134        1 
H       3.50202010       2.11132095       1.09315499        1 
H       2.40055575      -3.12778421      -1.04895643        1 
H       2.78960585      -3.68352268       0.60981417        1 
