29
Lattice="0.0 0.0 0.0 0.0 0.0 0.0 0.0 0.0 0.0" Properties=species:S:1:pos:R:3:Z:I:1 pbc="F F F"
C       0.67486939      -0.62570821      -0.70559370        6 
C       0.44580320       0.90521903      -0.42336416        6 
C      -0.36574632      -1.67136252      -0.33993584        6 
C      -0.90770474       1.34183063       0.10895069        6 
O      -1.43649535      -1.19341880       0.30316022        8 
O      -0.20943898      -2.84105764      -0.60339135        8 
O      -1.78448485       1.47464626      -0.91260338        8 
O      -1.17866637       1.57821217       1.25753303        8 
C      -3.13158751       1.81365288      -0.54242955        6 
C      -2.42704754      -2.15261790       0.71838658        6 
C       1.96600127      -0.87524576       0.13614638        6 
C       3.17634798      -0.19142470      -0.53698864        6 
C       2.92410994       1.30104526      -0.16353292        6 
C       1.58637593       1.18940332       0.59372541        6 
O       1.72577709      -0.06205458       1.28732605        8 
H       0.87150888      -0.79227399      -1.76597525        1 
H       0.59820007       1.45399464      -1.35471368        1 
H      -3.55635446       1.03038298       0.08790495        1 
H      -1.96950261      -2.92626446       1.33527250        1 
H       2.10729492      -1.91309577       0.42613622        1 
H       4.10655236      -0.56100428      -0.10350788        1 
H       3.21193727      -0.37029542      -1.61335151        1 
H       3.70180537       1.68044150       0.50087591        1 
H       2.86634440       1.96054422      -1.03171644        1 
H       1.36257963       1.97629543       1.30790949        1 
H      -3.15562204       2.76095159      -0.00181506        1 
H      -3.68124977       1.89119974      -1.47802207        1 
H      -2.89556019      -2.61329111      -0.15288351        1 
H      -3.15329884      -1.58265551       1.29316323        1 
