29
Lattice="0.0 0.0 0.0 0.0 0.0 0.0 0.0 0.0 0.0" Properties=species:S:1:pos:R:3:Z:I:1 pbc="F F F"
C      -0.76821667       0.45677532       0.64096703        6 
C       0.78500402       0.41521788       0.58866615        6 
C      -1.46198836      -0.69763494      -0.05863884        6 
C       1.39673853      -0.97044616       0.51683036        6 
O      -2.73135711      -0.81151734       0.39785044        8 
O      -1.00312671      -1.38636499      -0.93160196        8 
O       2.53775660      -0.98424339      -0.19793597        8 
O       0.94502879      -1.93700258       1.07855931        8 
C       3.18697456      -2.26589100      -0.31422056        6 
C      -3.53399559      -1.82970184      -0.22894260        6 
C      -1.01284523       1.72785201      -0.23755374        6 
C      -0.46577491       2.99397355       0.46654308        6 
C       1.06285133       2.86705427       0.17566866        6 
C       1.10631427       1.48134001      -0.50029811        6 
O      -0.08304899       1.51470925      -1.30500675        8 
H      -1.16745715       0.56217946       1.64779848        1 
H       1.15520790       0.78574425       1.55218393        1 
H       3.47012814      -2.64101385       0.67030279        1 
H      -3.07795307      -2.81080305      -0.08972608        1 
H      -2.02265310       1.80991883      -0.63376148        1 
H      -0.88679929       3.89220993       0.01322352        1 
H      -0.70459313       3.01176814       1.53222614        1 
H       1.39603157       3.63525878      -0.52370352        1 
H       1.68295972       2.92477536       1.07226587        1 
H       1.97000908       1.26563190      -1.12074859        1 
H       2.51834596      -2.98063315      -0.79538335        1 
H       4.06781832      -2.08911239      -0.92737832        1 
H      -3.63840566      -1.63012705      -1.29678337        1 
H      -4.50139125      -1.78206183       0.26637089        1 
