29
Lattice="0.0 0.0 0.0 0.0 0.0 0.0 0.0 0.0 0.0" Properties=species:S:1:pos:R:3:Z:I:1 pbc="F F F"
C      -0.52595845       0.73529763      -0.77059230        6 
C      -0.73215736      -0.81397112      -0.58715405        6 
C       0.88738684       1.28591359      -0.64933045        6 
C       0.42342931      -1.74958438      -0.28052756        6 
O       1.21620532       1.61712665       0.60938041        8 
O       1.59454419       1.50634054      -1.60473106        8 
O       1.54160033      -1.14535663       0.14158957        8 
O       0.31443541      -2.94881220      -0.39160421        8 
C       2.65116428      -2.00591522       0.46278591        6 
C       2.54264758       2.13241481       0.79672840        6 
C      -1.50242368       1.27433466       0.31778277        6 
C      -2.95976296       1.10424596      -0.16482204        6 
C      -3.16063533      -0.43074659       0.02113142        6 
C      -1.77916570      -0.83899989       0.57420925        6 
O      -1.39678035       0.29183899       1.35973428        8 
H      -0.84506921       1.01881887      -1.77359819        1 
H      -1.17733361      -1.23546112      -1.48922414        1 
H       2.37948930      -2.68675358       1.27038213        1 
H       2.68166802       3.05691823       0.23345917        1 
H      -1.24492774       2.25288980       0.71195450        1 
H      -3.63585731       1.67299551       0.47502615        1 
H      -3.10389626       1.43982452      -1.19365840        1 
H      -3.93760388      -0.64392507       0.75638278        1 
H      -3.41347978      -0.95402862      -0.90230811        1 
H      -1.75606951      -1.74357162       1.17689624        1 
H       2.94903723      -2.58295023      -0.41323936        1 
H       3.45133157      -1.33918486       0.77516719        1 
H       3.28099088       1.39970642       0.46618898        1 
H       2.63449053       2.31504295       1.86513792        1 
