29
Lattice="0.0 0.0 0.0 0.0 0.0 0.0 0.0 0.0 0.0" Properties=species:S:1:pos:R:3:Z:I:1 pbc="F F F"
C       0.56175650      -0.60709892      -0.84813056        6 
C       0.44496466       0.85365116      -0.30555457        6 
C      -0.38912543      -1.66583380      -0.27950307        6 
C      -0.91205581       1.41562671       0.05538533        6 
O      -1.52317629      -1.16121188       0.23035827        8 
O      -0.11400414      -2.84049176      -0.23804353        8 
O      -1.75569266       1.30795748      -0.99294184        8 
O      -1.17009247       2.03174375       1.05985048        8 
C      -3.08229871       1.82113396      -0.79336126        6 
C      -2.40513219      -2.09586565       0.88169916        6 
C       1.95699723      -0.95364938      -0.25654720        6 
C       3.06506889      -0.01337549      -0.79027219        6 
C       2.86886548       1.24999901       0.10589385        6 
C       1.54458378       0.88115260       0.79537536        6 
O       1.75991919      -0.50840754       1.10000379        8 
H       0.51661529      -0.65520639      -1.93761879        1 
H       0.75755122       1.51025528      -1.12536626        1 
H      -3.57698168       1.28202883       0.01660468        1 
H      -1.88415580      -2.60103749       1.69566439        1 
H       2.18453832      -2.01457162      -0.26886020        1 
H       4.04884948      -0.46146424      -0.64863996        1 
H       2.94470503       0.19677229      -1.85574270        1 
H       3.66553403       1.33728294       0.84599517        1 
H       2.81524060       2.18248956      -0.45973848        1 
H       1.27394988       1.42805150       1.69370712        1 
H      -3.05323463       2.88480110      -0.55245952        1 
H      -3.60370024       1.65493671      -1.73372277        1 
H      -2.76861196      -2.83651189       0.16802032        1 
H      -3.22620902      -1.49485752       1.26591151        1 
