29
Lattice="0.0 0.0 0.0 0.0 0.0 0.0 0.0 0.0 0.0" Properties=species:S:1:pos:R:3:Z:I:1 pbc="F F F"
C      -0.59098588      -0.91930597       0.53392680        6 
C      -0.60569858       0.64037824       0.76204858        6 
C       0.67483026      -1.58526577       0.01032322        6 
C       0.70381632       1.38236401       0.57344926        6 
O       1.78738591      -1.03598423       0.52376777        8 
O       0.67922578      -2.56177686      -0.69830621        8 
O       1.02092136       1.52067311      -0.72797884        8 
O       1.37673911       1.81219294       1.47808076        8 
C       2.27825845       2.15748248      -1.00719113        6 
C       3.03866251      -1.63167422       0.13418265        6 
C      -1.76781845      -1.08627993      -0.45728592        6 
C      -3.10985848      -0.83823752       0.26622616        6 
C      -3.10236752       0.71591965       0.39243529        6 
C      -1.73434002       1.05177836      -0.23650448        6 
O      -1.62489497       0.07907641      -1.28328824        8 
H      -0.79440157      -1.42499279       1.48290565        1 
H      -0.89818626       0.85139421       1.78992014        1 
H       2.29472094       3.17164857      -0.60495285        1 
H       3.17636382      -1.54633633      -0.94482006        1 
H      -1.70329336      -1.98398437      -1.06443778        1 
H      -3.94136621      -1.18465867      -0.34855581        1 
H      -3.16701898      -1.34924398       1.22987813        1 
H      -3.90391301       1.16567695      -0.19531889        1 
H      -3.19560294       1.06914547       1.42119697        1 
H      -1.63222831       2.05114071      -0.65183419        1 
H       3.09629911       1.58515830      -0.56589175        1 
H       2.36120632       2.17285389      -2.09166988        1 
H       3.06452885      -2.68435368       0.41851170        1 
H       3.80161902      -1.06926326       0.66740915        1 
