29
Lattice="0.0 0.0 0.0 0.0 0.0 0.0 0.0 0.0 0.0" Properties=species:S:1:pos:R:3:Z:I:1 pbc="F F F"
C      -0.55455378      -0.79107702       0.51322198        6 
C      -0.56168531       0.79506925       0.52347193        6 
C       0.65593363      -1.43199008      -0.14307446        6 
C       0.63801312       1.45514878      -0.13422174        6 
O       1.68184320      -1.51312787       0.73137870        8 
O       0.71023968      -1.84735405      -1.27249453        8 
O       1.68345717       1.49496001       0.71974477        8 
O       0.67235309       1.90852976      -1.24950355        8 
C       2.90189169       2.05483264       0.19658020        6 
C       2.90594635      -2.06619162       0.21483861        6 
C      -1.86674296      -1.07343945      -0.26191861        6 
C      -3.07388145      -0.79371851       0.66174827        6 
C      -3.08202867       0.76677297       0.67501972        6 
C      -1.87864759       1.07483949      -0.24440114        6 
O      -1.92495678       0.00788937      -1.19750004        8 
H      -0.59212592      -1.15549404       1.54037294        1 
H      -0.59751718       1.14663856       1.55524099        1 
H       3.23474718       1.49196121      -0.67699724        1 
H       3.26192281      -1.47776734      -0.63233456        1 
H      -1.87457108      -2.01948178      -0.79611555        1 
H      -3.98693836      -1.19328373       0.21874182        1 
H      -2.95751551      -1.23299834       1.65482866        1 
H      -3.99959729       1.16407084       0.23938609        1 
H      -2.96983676       1.18998906       1.67552189        1 
H      -1.89709950       2.02879261      -0.76387701        1 
H       2.75360727       3.09779748      -0.08754169        1 
H       3.62682241       1.97680467       1.00372901        1 
H       2.75497350      -3.09784107      -0.10694001        1 
H       3.61472192      -2.02166711       1.03870013        1 
