29
Lattice="0.0 0.0 0.0 0.0 0.0 0.0 0.0 0.0 0.0" Properties=species:S:1:pos:R:3:Z:I:1 pbc="F F F"
C       0.16824657       1.07050765       0.36683135        6 
C       0.57467686      -0.40425840       0.74060330        6 
C      -1.22564676       1.26432266      -0.20058978        6 
C      -0.37718246      -1.48397839       0.23512598        6 
O      -2.12096336       1.40748879       0.79595744        8 
O      -1.49648976       1.35301375      -1.37170044        8 
O       0.27481103      -2.62933679      -0.04185236        8 
O      -1.57579502      -1.37529148       0.15636818        8 
C      -0.54085357      -3.72716124      -0.49640882        6 
C      -3.50233357       1.43629567       0.39477404        6 
C       1.30211592       1.44701161      -0.62671372        6 
C       2.54238281       1.86025235       0.18554227        6 
C       2.96186709       0.48206442       0.78257168        6 
C       1.97205717      -0.47361076       0.07415093        6 
O       1.70929591       0.18106057      -1.17520592        8 
H       0.21927799       1.68354948       1.26799236        1 
H       0.61992137      -0.53112663       1.82588838        1 
H      -1.24690211      -4.02479147       0.28045718        1 
H      -3.75731029       0.49857716      -0.10084783        1 
H       0.99268200       2.10876879      -1.43048869        1 
H       3.31233170       2.25410719      -0.47952963        1 
H       2.32473509       2.61498856       0.94355868        1 
H       3.98978638       0.22672667       0.52254137        1 
H       2.87090275       0.43888293       1.87050102        1 
H       2.33421983      -1.48045273      -0.10391486        1 
H      -1.08993118      -3.44210054      -1.39432854        1 
H       0.15638655      -4.53372937      -0.71133383        1 
H      -3.69070104       2.27252518      -0.28022525        1 
H      -4.07035795       1.55045239       1.31557354        1 
