29
Lattice="0.0 0.0 0.0 0.0 0.0 0.0 0.0 0.0 0.0" Properties=species:S:1:pos:R:3:Z:I:1 pbc="F F F"
C      -0.68207481      -0.80732122       0.43143687        6 
C      -0.29753344       0.69086231       0.59851203        6 
C       0.38844381      -1.82172885       0.08174875        6 
C       0.94659511       1.13952612      -0.14346186        6 
O       1.57993281      -1.49197015       0.61327234        8 
O       0.15936430      -2.88868322      -0.43411644        8 
O       1.49132669       2.21104320       0.48089810        8 
O       1.37437676       0.68224325      -1.17144508        8 
C       2.63260193       2.80065927      -0.16895815        6 
C       2.65362646      -2.42448113       0.39131717        6 
C      -1.90618060      -0.73559130      -0.52454355        6 
C      -3.15005370      -0.37693160       0.31268755        6 
C      -2.81833485       1.09847105       0.69916146        6 
C      -1.52774466       1.34212916      -0.12197472        6 
O      -1.68663663       0.48277151      -1.25315524        8 
H      -1.02199091      -1.17157076       1.40816303        1 
H      -0.22101926       0.99827826       1.63975104        1 
H       3.44906564       2.07941332      -0.23060870        1 
H       2.85315905      -2.51560915      -0.67709765        1 
H      -1.99752346      -1.57529700      -1.20717452        1 
H      -4.04451674      -0.42819105      -0.30963304        1 
H      -3.29256549      -1.03261666       1.17376166        1 
H      -3.60590252       1.78341090       0.38245930        1 
H      -2.65991527       1.23934102       1.77053891        1 
H      -1.36678489       2.36647690      -0.45165897        1 
H       2.37103352       3.13159577      -1.17525062        1 
H       2.91528366       3.64720587       0.45290500        1 
H       2.40079917      -3.40405893       0.79947955        1 
H       3.51425583      -2.00273819       0.90566483        1 
