29
Lattice="0.0 0.0 0.0 0.0 0.0 0.0 0.0 0.0 0.0" Properties=species:S:1:pos:R:3:Z:I:1 pbc="F F F"
C       0.51561246      -0.74184146      -0.68014101        6 
C       0.72957080       0.81535726      -0.67570994        6 
C      -0.91785948      -1.24107845      -0.66701538        6 
C      -0.37429389       1.75581978      -0.20977086        6 
O      -1.28903380      -1.74327932       0.52438848        8 
O      -1.62548826      -1.24174050      -1.64529972        8 
O      -1.53068064       1.15461095       0.09506339        8 
O      -0.19328021       2.94620355      -0.10486997        8 
C      -2.59556529       2.00641641       0.55791079        6 
C      -2.64651325      -2.20643010       0.61492240        6 
C       1.44004114      -1.17741559       0.49560521        6 
C       2.88968078      -1.23792457      -0.02244011        6 
C       3.18407299       0.27920269      -0.22794248        6 
C       1.89861216       0.91798581       0.34693676        6 
O       1.47439605      -0.01917715       1.34699797        8 
H       0.90518664      -1.12341694      -1.62652323        1 
H       1.02467110       1.17743595      -1.66203476        1 
H      -2.29949370       2.51533611       1.47583384        1 
H      -2.82654167      -3.01255208      -0.09781757        1 
H       1.08869792      -2.03628290       1.05796665        1 
H       3.54067142      -1.66805583       0.74003772        1 
H       2.99310591      -1.82876432      -0.93486362        1 
H       4.05743298       0.60137954       0.33998765        1 
H       3.34445280       0.54782552      -1.27407054        1 
H       2.01241239       1.90742586       0.78044216        1 
H      -2.84776024       2.74520091      -0.20356456        1 
H      -3.43705925       1.34209293       0.74013969        1 
H      -3.33787579      -1.38745451       0.41000185        1 
H      -2.76496052      -2.56169591       1.63628902        1 
