29
Lattice="0.0 0.0 0.0 0.0 0.0 0.0 0.0 0.0 0.0" Properties=species:S:1:pos:R:3:Z:I:1 pbc="F F F"
C      -0.36934417      -0.73784182       0.52490025        6 
C      -0.70129451       0.79278479       0.54131452        6 
C       0.92125749      -1.11714122      -0.17267070        6 
C       0.39416756       1.74372938       0.09335828        6 
O       1.60284153      -2.02667744       0.56170534        8 
O       1.28075779      -0.73673143      -1.25793736        8 
O       1.56756499       1.42716375       0.67899365        8 
O       0.22896957       2.71941930      -0.59329490        8 
C       2.69975440       2.23483084       0.30710217        6 
C       2.81879818      -2.52204846      -0.02775532        6 
C      -1.59133458      -1.26308024      -0.29694789        6 
C      -2.86694031      -1.18415899       0.57384226        6 
C      -3.17890180       0.34296385       0.50919839        6 
C      -1.98400282       0.84964013      -0.32524223        6 
O      -1.78746789      -0.22473006      -1.25876697        8 
H      -0.35002242      -1.15596231       1.52949250        1 
H      -0.91880198       1.09230486       1.57152692        1 
H       2.89114113       2.13418692      -0.76208502        1 
H       3.52197907      -1.70387846      -0.19073453        1 
H      -1.42354112      -2.21050009      -0.80508627        1 
H      -3.66679823      -1.77623251       0.12725751        1 
H      -2.70200654      -1.54934143       1.58972874        1 
H      -4.11312196       0.53465618      -0.02031570        1 
H      -3.24289624       0.81398635       1.49236402        1 
H      -2.11899088       1.78532919      -0.85962168        1 
H       2.51867406       3.28291977       0.54865569        1 
H       3.53545056       1.84599618       0.88476633        1 
H       2.61046455      -3.00950509      -0.98140476        1 
H       3.21960961      -3.23528021       0.68910639        1 
