29
Lattice="0.0 0.0 0.0 0.0 0.0 0.0 0.0 0.0 0.0" Properties=species:S:1:pos:R:3:Z:I:1 pbc="F F F"
C      -0.62709382       0.56027882      -0.78232724        6 
C      -0.54900201      -0.99050916      -0.47171273        6 
C       0.67809186       1.32242035      -0.65933843        6 
C       0.72736467      -1.48615898       0.19707141        6 
O       0.91213690       1.72191599       0.60558890        8 
O       1.44134465       1.51290278      -1.57373415        8 
O       1.79046257      -1.28491754      -0.60338942        8 
O       0.79312315      -2.02613580       1.27246378        8 
C       3.06920676      -1.69659682      -0.08728096        6 
C       2.15836091       2.40294673       0.83622516        6 
C      -1.78299439       0.98303224       0.17226917        6 
C      -3.12487713       0.58731122      -0.47848933        6 
C      -3.07994702      -0.96303998      -0.31613305        6 
C      -1.76235907      -1.14498123       0.47250315        6 
O      -1.68144368       0.05447148       1.25724723        8 
H      -0.91941451       0.68916951      -1.82474693        1 
H      -0.65603422      -1.55539431      -1.40062798        1 
H       3.26572762      -1.21124800       0.86979510        1 
H       2.19827151       3.33115843       0.26384662        1 
H      -1.71390057       1.99973659       0.54981147        1 
H      -3.95244177       1.01995164       0.08561993        1 
H      -3.21188912       0.91490394      -1.51632121        1 
H      -3.92598070      -1.32817317       0.26702161        1 
H      -3.07193985      -1.49692891      -1.26896854        1 
H      -1.70443074      -2.01148033       1.12418479        1 
H       3.09409287      -2.77907165       0.04850054        1 
H       3.79432576      -1.38520711      -0.83548130        1 
H       2.99734950       1.76876413       0.54603048        1 
H       2.18182138       2.60795274       1.90394246        1 
