29
Lattice="0.0 0.0 0.0 0.0 0.0 0.0 0.0 0.0 0.0" Properties=species:S:1:pos:R:3:Z:I:1 pbc="F F F"
C      -0.51167482       0.35084623      -0.79597977        6 
C       0.01128176      -1.01869872      -0.24505307        6 
C       0.13409570       1.60082719      -0.17634571        6 
C       1.45421496      -1.23427463       0.16691966        6 
O      -0.78280119       2.56227719       0.06592333        8 
O       1.31371021       1.78020308      -0.01159767        8 
O       2.30216121      -0.68685672      -0.71423403        8 
O       1.79434979      -2.00100252       1.03799350        8 
C       3.70374477      -0.88672457      -0.46305664        6 
C      -0.27408235       3.79619829       0.60314510        6 
C      -1.98287039       0.22484543      -0.30790720        6 
C      -2.70092260      -1.00656813      -0.91684529        6 
C      -2.18474984      -2.16277523      -0.00538867        6 
C      -1.09327876      -1.41199453       0.77588180        6 
O      -1.75061275      -0.16451223       1.06101031        8 
H      -0.39607682       0.42717972      -1.87913337        1 
H      -0.05414901      -1.71560818      -1.09015419        1 
H       3.97756071      -0.45088040       0.49855783        1 
H       0.43284315       4.25346163      -0.09086819        1 
H      -2.54731415       1.14940089      -0.33559937        1 
H      -3.78274933      -0.88938013      -0.84838218        1 
H      -2.44858876      -1.14882558      -1.97059073        1 
H      -2.96374501      -2.51251701       0.67398047        1 
H      -1.79982382      -3.01947483      -0.56207618        1 
H      -0.72728219      -1.86878043       1.69042038        1 
H       3.94772152      -1.95039767      -0.46299160        1 
H       4.21691389      -0.37175842      -1.27183561        1 
H       0.22301048       3.61735162       1.55739464        1 
H      -1.14603944       4.43217180       0.73938171        1 
