29
Lattice="0.0 0.0 0.0 0.0 0.0 0.0 0.0 0.0 0.0" Properties=species:S:1:pos:R:3:Z:I:1 pbc="F F F"
C      -0.45851611      -0.92560833       0.45400162        6 
C      -0.67308718       0.60848178       0.73151150        6 
C       0.88639160      -1.35629827      -0.10820418        6 
C       0.41708397       1.62313018       0.44304475        6 
O       1.78631482      -1.47416287       0.89599204        8 
O       1.14343897      -1.57043082      -1.26343297        8 
O       1.31262430       1.21493661      -0.46328649        8 
O       0.42329468       2.72284527       0.94660779        8 
C       2.32499665       2.16110420      -0.85121376        6 
C       3.12858110      -1.80281010       0.49729063        6 
C      -1.60611005      -1.20039617      -0.55619512        6 
C      -2.95638919      -1.22960675       0.19054316        6 
C      -3.17716718       0.28865857       0.47068395        6 
C      -1.91409423       0.89070413      -0.18264377        6 
O      -1.68088159       0.02909672      -1.29547678        8 
H      -0.59937579      -1.47490735       1.38661563        1 
H      -0.93283167       0.77114196       1.77718939        1 
H       1.86505556       3.07252142      -1.23460055        1 
H       3.52897666      -1.02366922      -0.15367486        1 
H      -1.41279692      -2.02194353      -1.23981555        1 
H      -3.73682802      -1.63079871      -0.45751223        1 
H      -2.92323000      -1.83676866       1.09738881        1 
H      -4.07168996       0.66011900      -0.03098187        1 
H      -3.25747353       0.53040260       1.53194963        1 
H      -1.99841177       1.92307365      -0.51432127        1 
H       2.95999222       2.40771538       0.00128087        1 
H       2.89695120       1.66196578      -1.62991330        1 
H       3.14893943      -2.75686452      -0.03145158        1 
H       3.70097070      -1.86292118       1.42038551        1 
