29
Lattice="0.0 0.0 0.0 0.0 0.0 0.0 0.0 0.0 0.0" Properties=species:S:1:pos:R:3:Z:I:1 pbc="F F F"
C      -0.82462338      -0.04258455      -0.59573842        6 
C       0.52927397      -0.81617950      -0.52109866        6 
C      -0.74102259       1.45979393      -0.40152493        6 
C       1.66536329      -0.08861763       0.17843205        6 
O      -1.91518989       1.96228483       0.02944219        8 
O       0.22278712       2.13783200      -0.65553906        8 
O       2.79895167      -0.18294477      -0.55368308        8 
O       1.60820112       0.44719700       1.25439788        8 
C       3.95519350       0.46837306       0.00447445        6 
C      -1.96436371       3.39268644       0.20034410        6 
C      -1.72699492      -0.86836415       0.36703071        6 
C      -2.19805294      -2.13798887      -0.37469690        6 
C      -0.86524778      -2.94636565      -0.43943391        6 
C       0.08325811      -2.02497091       0.36320524        6 
O      -0.79106114      -1.40295856       1.31089894        8 
H      -1.21596450      -0.13433731      -1.61589013        1 
H       0.87319248      -1.13309363      -1.50354798        1 
H       3.76543713       1.53691309       0.11609644        1 
H      -1.78302762       3.89586809      -0.75069447        1 
H      -2.49228736      -0.29545063       0.88056401        1 
H      -2.94734394      -2.66138477       0.22103952        1 
H      -2.62874178      -1.92722276      -1.35551728        1 
H      -0.96181296      -3.91368064       0.05523757        1 
H      -0.51397316      -3.12147907      -1.45838569        1 
H       0.89558560      -2.52540675       0.88587188        1 
H       4.20295007       0.04282974       0.97818068        1 
H       4.75876016       0.29277824      -0.70748623        1 
H      -1.21543236       3.71097153       0.92630775        1 
H      -2.96748533       3.60544525       0.56283994        1 
