29
Lattice="0.0 0.0 0.0 0.0 0.0 0.0 0.0 0.0 0.0" Properties=species:S:1:pos:R:3:Z:I:1 pbc="F F F"
C      -0.99390725       0.10324787      -0.78196677        6 
C       0.25601269      -0.81163205      -0.55721464        6 
C      -0.83889207       1.60006536      -0.54795837        6 
C       1.59094030      -0.13861600      -0.30496093        6 
O      -0.65896535       1.90802738       0.74391990        8 
O      -0.98021457       2.42003197      -1.42471644        8 
O       2.54253247      -1.08565492      -0.13562058        8 
O       1.82229975       1.04255832      -0.26422371        8 
C       3.87763721      -0.60471669       0.11185294        6 
C      -0.41122780       3.29393822       1.03143737        6 
C      -1.98122118      -0.54678633       0.23877032        6 
C      -2.44848524      -1.92140324      -0.29258634        6 
C      -1.19276970      -2.80089468       0.00054243        6 
C      -0.23529063      -1.74592891       0.59328197        6 
O      -1.12171166      -0.90193413       1.33086521        8 
H      -1.35394943       0.01069621      -1.80535478        1 
H       0.42178021      -1.41570247      -1.45351686        1 
H       4.22848132      -0.00582783      -0.72981696        1 
H      -1.23703914       3.91623987       0.68359038        1 
H      -2.76819655       0.11463750       0.59230135        1 
H      -3.31710279      -2.26786519       0.26869480        1 
H      -2.71830068      -1.89129447      -1.34996078        1 
H      -1.41204303      -3.56564385       0.74683300        1 
H      -0.78825791      -3.29351075      -0.88552197        1 
H       0.55197133      -2.12405721       1.23936295        1 
H       3.90124601       0.00056615       1.01909073        1 
H       4.48905693      -1.49658740       0.22914739        1 
H       0.51372076       3.60854053       0.54573773        1 
H      -0.31412907       3.35111817       2.11341895        1 
