29
Lattice="0.0 0.0 0.0 0.0 0.0 0.0 0.0 0.0 0.0" Properties=species:S:1:pos:R:3:Z:I:1 pbc="F F F"
C      -0.36552923      -0.97930523       0.54997938        6 
C      -0.50734150       0.58157897       0.52308736        6 
C       0.89097881      -1.55707478      -0.08935007        6 
C       0.67191798       1.39734700       0.03773277        6 
O       1.86008766      -1.69116138       0.84539009        8 
O       1.02937795      -1.84907610      -1.24656135        8 
O       0.51045927       2.68346430       0.43354386        8 
O       1.60158778       1.02503172      -0.62992089        8 
C       1.51353184       3.61346193      -0.01694954        6 
C       3.14802373      -2.09944080       0.34819294        6 
C      -1.62523045      -1.37934403      -0.27026264        6 
C      -2.90001270      -1.12293018       0.56591230        6 
C      -3.02609072       0.42840974       0.45868540        6 
C      -1.77319485       0.75904389      -0.37967074        6 
O      -1.68686168      -0.34986692      -1.26999534        8 
H      -0.40952624      -1.33612031       1.57901448        1 
H      -0.72848715       0.94853304       1.52652272        1 
H       2.49461143       3.33153035       0.36820377        1 
H       3.52034584      -1.36173711      -0.36405369        1 
H      -1.55529109      -2.34897703      -0.75514828        1 
H      -3.75750105      -1.62390067       0.11477615        1 
H      -2.80339288      -1.47693899       1.59442092        1 
H      -3.92546636       0.71591521      -0.08799261        1 
H      -3.03782995       0.93578734       1.42491788        1 
H      -1.80536071       1.69125478      -0.93861170        1 
H       1.54914058       3.63765289      -1.10711382        1 
H       1.21030617       4.58012954       0.37900194        1 
H       3.07935734      -3.07291780      -0.13965156        1 
H       3.79368047      -2.15354988       1.22224052        1 
