29
Lattice="0.0 0.0 0.0 0.0 0.0 0.0 0.0 0.0 0.0" Properties=species:S:1:pos:R:3:Z:I:1 pbc="F F F"
C      -0.50874195      -0.76891619       0.43953945        6 
C      -0.59758803       0.80058211       0.61802384        6 
C       0.78916982      -1.25646446      -0.16903829        6 
C       0.52376205       1.56580286      -0.06809009        6 
O       1.59468278      -1.77444000       0.78518064        8 
O       1.08296614      -1.21259070      -1.33705210        8 
O       1.65372622       1.49336266       0.67536743        8 
O       0.46255117       2.12082834      -1.13204999        8 
C       2.83096621       2.07087848       0.07833948        6 
C       2.88350457      -2.23300975       0.33925402        6 
C      -1.76501903      -1.03286532      -0.44116103        6 
C      -3.00896020      -1.02040760       0.47200977        6 
C      -3.10548593       0.50099249       0.80447013        6 
C      -1.96020146       1.07307561      -0.06419627        6 
O      -1.92033894       0.17827516      -1.18356863        8 
H      -0.60571987      -1.24363546       1.41539926        1 
H      -0.58548484       1.05678211       1.67813055        1 
H       3.04958490       1.57976351      -0.87118883        1 
H       3.45892592      -1.40322071      -0.07470747        1 
H      -1.67032949      -1.87266439      -1.12496603        1 
H      -3.88173557      -1.35876629      -0.08809179        1 
H      -2.90461920      -1.65305073       1.35587360        1 
H      -4.06449228       0.91849869       0.49572453        1 
H      -2.97049414       0.71724635       1.86677109        1 
H      -2.08656296       2.09213197      -0.41914166        1 
H       2.68826460       3.13854013      -0.09450112        1 
H       3.63166245       1.90292676       0.79528521        1 
H       2.77279048      -3.00672465      -0.42182302        1 
H       3.37226545      -2.63178608       1.22535125        1 
