29
Lattice="0.0 0.0 0.0 0.0 0.0 0.0 0.0 0.0 0.0" Properties=species:S:1:pos:R:3:Z:I:1 pbc="F F F"
C       0.48400058      -0.76665784      -0.69171838        6 
C       0.77952257       0.77524873      -0.70068074        6 
C      -0.98557652      -1.14698803      -0.69529173        6 
C      -0.30828906       1.75464245      -0.29747809        6 
O      -1.36709888      -1.80339939       0.41372474        8 
O      -1.71547829      -0.93648331      -1.63438007        8 
O      -1.30274398       1.19760240       0.40832836        8 
O      -0.22840637       2.93923913      -0.52342268        8 
C      -2.34144960       2.08138062       0.86765332        6 
C      -2.75718855      -2.16683468       0.47921102        6 
C       1.35972290      -1.24374030       0.50144063        6 
C       2.82163829      -1.35430234       0.02362165        6 
C       3.18485671       0.15167525      -0.15018071        6 
C       1.90266638       0.83273630       0.38276679        6 
O       1.41257343      -0.09143063       1.36025916        8 
H       0.85889774      -1.18519828      -1.62933211        1 
H       1.14358410       1.11536018      -1.66916650        1 
H      -1.92126355       2.86620042       1.49749183        1 
H      -3.02068599      -2.83071423      -0.34540579        1 
H       0.96395377      -2.09251738       1.04917634        1 
H       3.43223535      -1.82217355       0.79705858        1 
H       2.92790826      -1.93543029      -0.89475170        1 
H       4.04659243       0.43157743       0.45691604        1 
H       3.39728906       0.42625144      -1.18517234        1 
H       2.03888693       1.81532694       0.82806860        1 
H      -2.85616713       2.53256733       0.01822259        1 
H      -3.02118433       1.45353107       1.43945282        1 
H      -3.38026400      -1.27241955       0.43211329        1 
H      -2.88082973      -2.67143405       1.43491217        1 
