29
Lattice="0.0 0.0 0.0 0.0 0.0 0.0 0.0 0.0 0.0" Properties=species:S:1:pos:R:3:Z:I:1 pbc="F F F"
C       0.48499595       0.90352660       0.36901159        6 
C       0.57731347      -0.57891102       0.84250858        6 
C      -0.87442172       1.46603030       0.01180687        6 
C      -0.49014094      -1.56013034       0.38772074        6 
O      -1.79337852       1.11805308       0.93707114        8 
O      -1.09084808       2.24023246      -0.88686822        8 
O      -1.23071031      -1.11499860      -0.63906368        8 
O      -0.58052404      -2.67707827       0.84146090        8 
C      -2.16825755      -2.04634710      -1.20734628        6 
C      -3.12977788       1.59925183       0.71200264        6 
C       1.56432944       0.96499584      -0.74764141        6 
C       2.93292593       1.17387671      -0.07312892        6 
C       3.10284905      -0.19961396       0.64832154        6 
C       1.88989796      -0.98763251       0.09683711        6 
O       1.66749463      -0.39998290      -1.19238742        8 
H       0.79858505       1.53685376       1.20669789        1 
H       0.66543873      -0.67942849       1.92319222        1 
H      -1.64421353      -2.92103534      -1.59469807        1 
H      -3.50646745       1.22767979      -0.24257866        1 
H       1.31333061       1.61548379      -1.58006637        1 
H       3.70448590       1.31991146      -0.83017369        1 
H       2.95065645       2.02802080       0.60684338        1 
H       4.03509261      -0.68990296       0.36625107        1 
H       3.08204962      -0.12036875       1.73732559        1 
H       2.02863489      -2.06186714       0.00158537        1 
H      -2.89319703      -2.36298689      -0.45594144        1 
H      -2.65762001      -1.50530538      -2.01413627        1 
H      -3.15173442       2.69001993       0.70681175        1 
H      -3.72229752       1.20714904       1.53564182        1 
