29
Lattice="0.0 0.0 0.0 0.0 0.0 0.0 0.0 0.0 0.0" Properties=species:S:1:pos:R:3:Z:I:1 pbc="F F F"
C      -0.79492540      -0.21437029      -0.42316622        6 
C       0.73795242      -0.41886185      -0.59931268        6 
C      -1.36303425       1.15986938      -0.12830663        6 
C       1.70178854       0.53339409       0.09325361        6 
O      -2.68301051       1.14386471      -0.46672197        8 
O      -0.82758710       2.11737860       0.35914650        8 
O       2.76833320       0.75000250      -0.72567567        8 
O       1.60845909       1.00316531       1.19221113        8 
C       3.80106566       1.59470053      -0.18750204        6 
C      -3.42099650       2.34401050      -0.17359411        6 
C      -1.16383420      -1.33915003       0.61043129        6 
C      -1.35384872      -2.64766988      -0.17985790        6 
C       0.11597644      -2.90833131      -0.63734820        6 
C       0.87652261      -1.79907147       0.13408566        6 
O       0.06646900      -1.58624094       1.29336787        8 
H      -1.26072659      -0.48405927      -1.37334419        1 
H       1.01380879      -0.48601814      -1.64997552        1 
H       3.39703350       2.57794868       0.05814979        1 
H      -3.00787069       3.19102584      -0.72358933        1 
H      -1.94318679      -1.08103913       1.32276092        1 
H      -1.70580916      -3.43697677       0.48652551        1 
H      -2.05985375      -2.55397408      -1.00652710        1 
H       0.46428907      -3.89522487      -0.33003889        1 
H       0.25057391      -2.82577766      -1.71789876        1 
H       1.89182301      -2.05003100       0.43348794        1 
H       4.23014587       1.15034646       0.71240885        1 
H       4.55161728       1.67182566      -0.97146137        1 
H      -3.38783479       2.56202376       0.89510929        1 
H      -4.44145821       2.14214782      -0.49223230        1 
