29
Lattice="0.0 0.0 0.0 0.0 0.0 0.0 0.0 0.0 0.0" Properties=species:S:1:pos:R:3:Z:I:1 pbc="F F F"
C      -0.44360765      -0.81028262       0.45913180        6 
C      -0.65517844       0.74042873       0.64021285        6 
C       0.87106303      -1.26859379      -0.14458526        6 
C       0.41108951       1.71347426       0.15599916        6 
O       1.71137226      -1.70202425       0.82105342        8 
O       1.12726822      -1.31472129      -1.32114413        8 
O       1.65222605       1.20614518       0.22432434        8 
O       0.17478447       2.85448193      -0.15844217        8 
C       2.72140701       2.06957492      -0.20770272        6 
C       3.00670862      -2.13360358       0.37286830        6 
C      -1.64882459      -1.14789849      -0.47158359        6 
C      -2.93790862      -1.20197278       0.37234348        6 
C      -3.15552801       0.31291574       0.67063073        6 
C      -1.98939693       0.94541054      -0.12175514        6 
O      -1.82687909       0.05419970      -1.23262169        8 
H      -0.54041262      -1.30094498       1.42748123        1 
H      -0.76939485       0.97007290       1.70411802        1 
H       2.60806049       2.30219370      -1.26710229        1 
H       3.52763042      -1.31244506      -0.12245504        1 
H      -1.47518747      -1.98219516      -1.14575061        1 
H      -3.75583315      -1.60765844      -0.22477727        1 
H      -2.83684971      -1.81315927       1.27137330        1 
H      -4.11198247       0.66366309       0.28116194        1 
H      -3.11726691       0.55446479       1.73505571        1 
H      -2.13973547       1.96151176      -0.47360189        1 
H       2.72164356       2.99356235       0.37118271        1 
H       3.63508456       1.50532175      -0.03569430        1 
H       2.91491688      -2.96937511      -0.32261998        1 
H       3.53947381      -2.43913205       1.27085726        1 
