29
Lattice="0.0 0.0 0.0 0.0 0.0 0.0 0.0 0.0 0.0" Properties=species:S:1:pos:R:3:Z:I:1 pbc="F F F"
C       0.70400086      -0.78409296      -0.47729772        6 
C       0.32924119       0.72813983      -0.55673886        6 
C      -0.37133070      -1.78472154      -0.10214032        6 
C      -0.93472048       1.12936909       0.17713296        6 
O      -1.56658171      -1.43712719      -0.61762674        8 
O      -0.15715038      -2.84256632       0.43614852        8 
O      -1.58522355       2.09698164      -0.51156588        8 
O      -1.30126548       0.71610687       1.24713705        8 
C      -2.77593530       2.61459111       0.11009371        6 
C      -2.66086993      -2.33413901      -0.35292644        6 
C       1.95367227      -0.76722159       0.44349226        6 
C       3.17373917      -0.33629372      -0.39569024        6 
C       2.83683853       1.16743188      -0.64442003        6 
C       1.55462650       1.33165063       0.20711659        6 
O       1.73823195       0.38978842       1.26641499        8 
H       0.99685426      -1.11341544      -1.48062395        1 
H       0.26813483       1.08972673      -1.58134477        1 
H      -3.50577372       1.81641341       0.25421036        1 
H      -2.84392485      -2.39173496       0.72078088        1 
H       2.06899967      -1.65327049       1.06083793        1 
H       4.08650510      -0.44362296       0.19180194        1 
H       3.28783613      -0.91291300      -1.31577955        1 
H       3.62644185       1.82218238      -0.27373332        1 
H       2.66868585       1.40358333      -1.69725269        1 
H       1.38660752       2.32472534       0.61891638        1 
H      -2.54017188       3.06191925       1.07689882        1 
H      -3.15963756       3.36542258      -0.57721511        1 
H      -2.44219758      -3.33036460      -0.73969841        1 
H      -3.51884016      -1.90261816      -0.86385708        1 
