29
Lattice="0.0 0.0 0.0 0.0 0.0 0.0 0.0 0.0 0.0" Properties=species:S:1:pos:R:3:Z:I:1 pbc="F F F"
C      -0.63259579       0.59768373      -0.77763850        6 
C      -0.53558039      -0.93777737      -0.45540961        6 
C       0.56379884       1.48005549      -0.48634624        6 
C       0.80146193      -1.43016313       0.06976366        6 
O       1.15773363       1.18325837       0.68133615        8 
O       0.90518660       2.39498865      -1.19853332        8 
O       1.76053300      -1.24817986      -0.86506531        8 
O       0.99677975      -1.95288671       1.13622107        8 
C       3.09549609      -1.61789563      -0.47695873        6 
C       2.27826928       2.00181079       1.05794103        6 
C      -1.84717701       0.98622088       0.13263168        6 
C      -3.15017355       0.45422380      -0.50552751        6 
C      -3.03831970      -1.06711235      -0.17979413        6 
C      -1.68592022      -1.11196428       0.56448509        6 
O      -1.67563077       0.14017219       1.26964824        8 
H      -0.86379474       0.76499922      -1.82810013        1 
H      -0.72271748      -1.50160428      -1.37307159        1 
H       3.41041699      -1.02986330       0.38684195        1 
H       1.96184919       3.03575881       1.20299923        1 
H      -1.86452055       2.02950706       0.44124467        1 
H      -4.01614995       0.90351551      -0.01735323        1 
H      -3.21415593       0.66831563      -1.57393189        1 
H      -3.84350801      -1.39217565       0.48012372        1 
H      -3.04989974      -1.70082788      -1.06890595        1 
H      -1.53914620      -1.92814628       1.26536148        1 
H       3.14238944      -2.67843073      -0.22587623        1 
H       3.72056361      -1.39870886      -1.33968167        1 
H       3.05006319       1.96821091       0.28711937        1 
H       2.64196600       1.57801454       1.99114090        1 
