29
Lattice="0.0 0.0 0.0 0.0 0.0 0.0 0.0 0.0 0.0" Properties=species:S:1:pos:R:3:Z:I:1 pbc="F F F"
C       0.40860891       1.00953982       0.47116493        6 
C       0.47385943      -0.54620496       0.63210078        6 
C      -0.89325487       1.59180931      -0.05577872        6 
C      -0.66102305      -1.34262514       0.01590177        6 
O      -1.85889548       1.48752799       0.88210337        8 
O      -1.04063691       2.13560684      -1.11921006        8 
O      -0.49987882      -2.65301856       0.31280515        8 
O      -1.57446272      -0.92473816      -0.64777967        8 
C      -1.47970285      -3.55299255      -0.23976013        6 
C      -3.18020596       1.87278666       0.46150552        6 
C       1.61573001       1.27151469      -0.46669998        6 
C       2.91506849       1.22017130       0.36051025        6 
C       3.00912014      -0.30650651       0.66279602        6 
C       1.80018038      -0.84474272      -0.13631755        6 
O       1.70061533       0.05955029      -1.23943196        8 
H       0.56509567       1.46704373       1.45091864        1 
H       0.54684654      -0.84534809       1.67845213        1 
H      -2.47798528      -3.29635978       0.11778877        1 
H      -3.50059246       1.23742633      -0.36543183        1 
H       1.48519525       2.11888575      -1.13266313        1 
H       3.75867372       1.55728752      -0.24318836        1 
H       2.87118475       1.83778140       1.25964675        1 
H       3.93618308      -0.73517885       0.27969267        1 
H       2.94339082      -0.54344156       1.72689169        1 
H       1.88750693      -1.86732234      -0.49446129        1 
H      -1.46588563      -3.50775307      -1.32973584        1 
H      -1.19107750      -4.54273091       0.10702883        1 
H      -3.19512770       2.91750685       0.14761194        1 
H      -3.81756167       1.72421932       1.33068174        1 
