29
Lattice="0.0 0.0 0.0 0.0 0.0 0.0 0.0 0.0 0.0" Properties=species:S:1:pos:R:3:Z:I:1 pbc="F F F"
C       0.15116138       0.90739028       0.37856424        6 
C       0.70350654      -0.49026959       0.84805162        6 
C      -1.29116454       1.01436384      -0.07865924        6 
C      -0.13368564      -1.74550626       0.65663231        6 
O      -1.89394442       2.03622521       0.58418315        8 
O      -1.85656580       0.35424013      -0.91082215        8 
O      -0.41152680      -2.00404123      -0.62118418        8 
O      -0.40326108      -2.49303901       1.57198652        8 
C      -1.19413502      -3.17968332      -0.88773459        6 
C      -3.26858198       2.28650516       0.23675384        6 
C       1.17823410       1.27693234      -0.74692923        6 
C       2.46459539       1.79480057      -0.06978972        6 
C       3.03604639       0.46550936       0.51344947        6 
C       2.00449371      -0.56010496      -0.01330511        6 
O       1.58737795       0.00858258      -1.25759782        8 
H       0.25044269       1.60686528       1.20712952        1 
H       0.92695523      -0.46031986       1.91312662        1 
H      -0.66454864      -4.07661092      -0.56167826        1 
H      -3.87715673       1.40186194       0.43035763        1 
H       0.77808251       1.88839637      -1.55245625        1 
H       3.13562324       2.21905821      -0.81822816        1 
H       2.27206163       2.55665762       0.68725621        1 
H       4.02567732       0.24765711       0.11033844        1 
H       3.10634823       0.46576851       1.60277944        1 
H       2.38295394      -1.56660799      -0.17634333        1 
H      -2.15399852      -3.11950263      -0.37297968        1 
H      -1.34006156      -3.18597703      -1.96516175        1 
H      -3.35424102       2.55607699      -0.81717423        1 
H      -3.58144780       3.11322612       0.87068667        1 
