29
Lattice="0.0 0.0 0.0 0.0 0.0 0.0 0.0 0.0 0.0" Properties=species:S:1:pos:R:3:Z:I:1 pbc="F F F"
C       0.68190976      -0.86762427      -0.59266086        6 
C       0.52440049       0.68884590      -0.82687836        6 
C      -0.61724555      -1.63972587      -0.48438432        6 
C      -0.87993289       1.21586425      -0.54550445        6 
O      -1.10981755      -1.62587672       0.77046459        8 
O      -1.16998186      -2.16296903      -1.41820939        8 
O      -0.90389824       2.17756276       0.39317924        8 
O      -1.86398985       0.84328614      -1.13693967        8 
C      -2.20228844       2.70929697       0.71701413        6 
C      -2.40941931      -2.22309736       0.93879482        6 
C       1.63618956      -0.88673615       0.63796182        6 
C       3.07685098      -0.69306601       0.12752112        6 
C       3.01527091       0.79692397      -0.32862202        6 
C       1.60169212       1.20812184       0.15369077        6 
O       1.37982498       0.36264576       1.29352379        8 
H       1.17647004      -1.29534869      -1.46516605        1 
H       0.73314067       0.93288523      -1.87046487        1 
H      -2.66733580       3.15010378      -0.16588913        1 
H      -2.37888599      -3.28419573       0.68635505        1 
H       1.47163968      -1.70656970       1.33163674        1 
H       3.78410538      -0.82695127       0.94746873        1 
H       3.34601990      -1.38340509      -0.67418529        1 
H       3.77846359       1.40051847       0.16359919        1 
H       3.13513647       0.91749938      -1.40767327        1 
H       1.48659645       2.24798918       0.44097117        1 
H      -2.84544759       1.91861158       1.10590317        1 
H      -2.02231008       3.46500975       1.47804823        1 
H      -3.13550958      -1.72019570       0.29864235        1 
H      -2.65616778      -2.08622603       1.98937723        1 
