29
Lattice="0.0 0.0 0.0 0.0 0.0 0.0 0.0 0.0 0.0" Properties=species:S:1:pos:R:3:Z:I:1 pbc="F F F"
C      -0.80295857      -0.19334439      -0.54475196        6 
C       0.68436869      -0.65141329      -0.55712721        6 
C      -1.05862482       1.29043046      -0.36986073        6 
C       1.66771070       0.25840994       0.16142424        6 
O      -2.35307341       1.51097757      -0.05238369        8 
O      -0.25186501       2.17069450      -0.52770872        8 
O       2.80445309       0.37360752      -0.56616453        8 
O       1.51116224       0.77027422       1.23809387        8 
C       3.82766725       1.20681257       0.00838086        6 
C      -2.73567390       2.88956853       0.11762480        6 
C      -1.45447141      -1.19311023       0.45896272        6 
C      -1.72750453      -2.51203480      -0.29316065        6 
C      -0.26769455      -3.02245920      -0.51046035        6 
C       0.54288062      -1.96554738       0.28070361        6 
O      -0.36429431      -1.56331016       1.31198118        8 
H      -1.21874660      -0.39315593      -1.53908766        1 
H       1.05120852      -0.84016944      -1.56403132        1 
H       3.44443765       2.21544050       0.16824627        1 
H      -2.58862099       3.44370917      -0.81082305        1 
H      -2.27214775      -0.78691706       1.04590586        1 
H      -2.29291602      -3.19391554       0.34362915        1 
H      -2.28182082      -2.36984706      -1.22313357        1 
H      -0.12251381      -4.01368978      -0.07918017        1 
H       0.02197281      -3.06623560      -1.56247916        1 
H       1.47122874      -2.31973216       0.72373524        1 
H       4.16694324       0.79584435       0.96083349        1 
H       4.63854665       1.21271486      -0.71694315        1 
H      -2.14483363       3.34998480       0.91029330        1 
H      -3.78925144       2.86590344       0.38713119        1 
