29
Lattice="0.0 0.0 0.0 0.0 0.0 0.0 0.0 0.0 0.0" Properties=species:S:1:pos:R:3:Z:I:1 pbc="F F F"
C      -0.26605064      -0.69748782       0.59886935        6 
C      -0.69460728       0.78593593       0.42003079        6 
C       0.97914110      -1.14946316      -0.14190989        6 
C       0.31812142       1.87956263       0.14518714        6 
O       1.57542520      -2.15388882       0.54878039        8 
O       1.36953981      -0.75794478      -1.20963380        8 
O       1.58022053       1.50829758       0.40912739        8 
O      -0.00580616       3.01924848      -0.09473319        8 
C       2.58850027       2.52554870       0.26602124        6 
C       2.71814674      -2.75621063      -0.08514787        6 
C      -1.48511777      -1.38408373      -0.11129357        6 
C      -2.78740609      -1.14217528       0.69337490        6 
C      -3.15097302       0.31175246       0.25668575        6 
C      -1.89944119       0.67524299      -0.56531572        6 
O      -1.64709612      -0.55268400      -1.26330422        8 
H      -0.18072270      -0.98697864       1.64450928        1 
H      -1.09137871       1.11556859       1.38727647        1 
H       2.60507606       2.89584487      -0.75956241        1 
H       3.49614124      -2.01074361      -0.25612698        1 
H      -1.30709774      -2.41297544      -0.41723414        1 
H      -3.55689198      -1.85588043       0.39636371        1 
H      -2.63299772      -1.24378847       1.76983369        1 
H      -4.03323249       0.32105347      -0.38488471        1 
H      -3.32749504       0.98927925       1.09403817        1 
H      -1.99489176       1.49972086      -1.26585970        1 
H       2.39464732       3.35450382       0.94839508        1 
H       3.52811640       2.03522764       0.51000554        1 
H       2.43483282      -3.20185167      -1.04018040        1 
H       3.06477122      -3.52094263       0.60667904        1 
