29
Lattice="0.0 0.0 0.0 0.0 0.0 0.0 0.0 0.0 0.0" Properties=species:S:1:pos:R:3:Z:I:1 pbc="F F F"
C      -0.88583715       0.40744131      -0.62095648        6 
C      -0.01926752      -0.89163526      -0.47200027        6 
C      -0.33842913       1.82082367      -0.53127662        6 
C       1.34938681      -0.86395153       0.19199457        6 
O       0.73646192       1.96755388       0.24284751        8 
O      -0.87595160       2.73609426      -1.11595586        8 
O       2.22743120      -1.55467287      -0.58757027        8 
O       1.65360464      -0.37744769       1.24613902        8 
C       3.55876961      -1.68842332      -0.05949542        6 
C       1.24758683       3.30479746       0.39174461        6 
C      -2.03571991       0.13997374       0.41557610        6 
C      -3.06852926      -0.79620922      -0.24096660        6 
C      -2.25388865      -2.12571769      -0.28647068        6 
C      -0.96652908      -1.71609494       0.46964918        6 
O      -1.42059523      -0.71340479       1.38219763        8 
H      -1.32237714       0.39118329      -1.62041912        1 
H       0.09859097      -1.37475059      -1.43999112        1 
H       4.01135857      -0.70665516       0.08837508        1 
H       0.48868511       3.95393463       0.83056556        1 
H      -2.43198780       1.02983107       0.89864873        1 
H      -3.94558957      -0.89088006       0.40125420        1 
H      -3.39671106      -0.44972086      -1.22215757        1 
H      -2.76786130      -2.92980419       0.24180112        1 
H      -2.04760102      -2.46932497      -1.30224703        1 
H      -0.47272139      -2.51468576       1.01916867        1 
H       3.54136511      -2.21990687       0.89353517        1 
H       4.11117177      -2.25680094      -0.80478376        1 
H       1.54976596       3.70758387      -0.57615448        1 
H       2.10276227       3.20776356       1.05636803        1 
