29
Lattice="0.0 0.0 0.0 0.0 0.0 0.0 0.0 0.0 0.0" Properties=species:S:1:pos:R:3:Z:I:1 pbc="F F F"
C       0.32208746       0.92201207       0.40074128        6 
C       0.64997996      -0.56530083       0.81506011        6 
C      -1.05083500       1.22568798      -0.17069064        6 
C      -0.39952779      -1.64915763       0.64436083        6 
O      -1.74868899       1.99815327       0.70182620        8 
O      -1.49665552       0.86356450      -1.22731541        8 
O      -0.80458868      -1.79084302      -0.61989186        8 
O      -0.75507593      -2.36819649       1.55224991        8 
C      -1.77127221      -2.82300471      -0.87910436        6 
C      -3.07881088       2.36430292       0.29043256        6 
C       1.44430912       1.17913008      -0.65325543        6 
C       2.78472871       1.38932478       0.08413123        6 
C       3.11622669      -0.07342375       0.51335008        6 
C       1.90679473      -0.83281148      -0.07626719        6 
O       1.61765032      -0.10040374      -1.26745468        8 
H       0.44805619       1.56325783       1.27183404        1 
H       0.90591505      -0.59587236       1.87301487        1 
H      -1.35239529      -3.80444233      -0.64966217        1 
H      -3.69041095       1.47354810       0.13816455        1 
H       1.19364330       1.91688910      -1.41164628        1 
H       3.53554069       1.78122818      -0.60352869        1 
H       2.70182433       2.07891007       0.92628467        1 
H       4.04096898      -0.42380428       0.05312158        1 
H       3.20655276      -0.19898093       1.59394590        1 
H       2.07615818      -1.87984550      -0.31739468        1 
H      -2.66751598      -2.66537507      -0.27732177        1 
H      -2.00078314      -2.73807211      -1.93846648        1 
H      -3.04756304       2.93886833      -0.63674303        1 
H      -3.47781981       2.96803887       1.10252759        1 
