29
Lattice="0.0 0.0 0.0 0.0 0.0 0.0 0.0 0.0 0.0" Properties=species:S:1:pos:R:3:Z:I:1 pbc="F F F"
C       0.05207770       1.03290439       0.44970077        6 
C       0.71573906      -0.36849261       0.70149758        6 
C      -1.31190720       0.98569114      -0.21447983        6 
C      -0.20223281      -1.55257327       0.45029249        6 
O      -2.24999015       1.53978697       0.58165189        8 
O      -1.53714532       0.55574933      -1.31729683        8 
O       0.44020424      -2.59063721      -0.11193319        8 
O      -1.36569784      -1.58169044       0.77061344        8 
C      -0.35868757      -3.76290439      -0.36951516        6 
C      -3.59945913       1.49032001       0.08234071        6 
C       1.10755863       1.65964344      -0.51163882        6 
C       2.36037836       2.05797623       0.29960474        6 
C       3.01394052       0.66219125       0.53843037        6 
C       1.99795972      -0.26535524      -0.16453020        6 
O       1.56127752       0.53378088      -1.27208148        8 
H      -0.03742737       1.59567629       1.37673269        1 
H       0.97496931      -0.45277926       1.76192554        1 
H      -0.77005940      -4.15572803       0.56137451        1 
H      -3.90451512       0.45277027      -0.06088064        1 
H       0.71137396       2.41769733      -1.18313111        1 
H       3.00670128       2.70591687      -0.29393272        1 
H       2.10934875       2.58105282       1.22455957        1 
H       3.98643564       0.58948898       0.04954916        1 
H       3.14849181       0.42211807       1.59539877        1 
H       2.38291330      -1.21524022      -0.52093966        1 
H      -1.17349869      -3.51756338      -1.05139345        1 
H       0.32099944      -4.48000227      -0.82403105        1 
H      -3.67918753       2.02573033      -0.86507608        1 
H      -4.20892571       1.96819802       0.84623285        1 
