29
Lattice="0.0 0.0 0.0 0.0 0.0 0.0 0.0 0.0 0.0" Properties=species:S:1:pos:R:3:Z:I:1 pbc="F F F"
C      -0.88574937      -0.18308432      -0.86917704        6 
C       0.54976460      -0.55492785      -0.40040243        6 
C      -1.55333668       1.14042657      -0.51481886        6 
C       1.65669133       0.47446217      -0.26391100        6 
O      -1.03596358       1.75104795       0.54697269        8 
O      -2.56633162       1.49932596      -1.07607447        8 
O       2.84324796      -0.19380216      -0.32912918        8 
O       1.59424070       1.66092456      -0.08571241        8 
C       4.02555833       0.60453464      -0.14210898        6 
C      -1.69975431       2.94766462       0.98663936        6 
C      -1.67047494      -1.26103674      -0.04056260        6 
C      -1.26375886      -2.70137178      -0.44746776        6 
C       0.06628846      -2.89001169       0.34926287        6 
C       0.26829673      -1.45346243       0.86248678        6 
O      -1.06301528      -1.09822198       1.24854869        8 
H      -1.01247278      -0.32009561      -1.94269621        1 
H       0.94603311      -1.22328548      -1.16849567        1 
H       4.09972752       1.36580470      -0.92029307        1 
H      -2.71995636       2.72239555       1.30247652        1 
H      -2.73989846      -1.07662005       0.02165401        1 
H      -2.02576896      -3.41492415      -0.13229238        1 
H      -1.13555588      -2.80325479      -1.52718128        1 
H      -0.06922716      -3.57262029       1.18980411        1 
H       0.89620046      -3.24895342      -0.26173111        1 
H       0.94993776      -1.31784020       1.69799440        1 
H       4.00842320       1.09203377       0.83406782        1 
H       4.85885393      -0.09173812      -0.20791958        1 
H      -1.72433062       3.68518926       0.18329405        1 
H      -1.10781305       3.31158439       1.82287402        1 
