29
Lattice="0.0 0.0 0.0 0.0 0.0 0.0 0.0 0.0 0.0" Properties=species:S:1:pos:R:3:Z:I:1 pbc="F F F"
C      -0.08144263       1.04043476       0.50961506        6 
C       0.70459289      -0.31313945       0.57842317        6 
C      -1.44849715       0.99002474      -0.15871039        6 
C      -0.04400984      -1.57360326       0.19010090        6 
O      -2.42578475       1.00944179       0.77497855        8 
O      -1.65243720       0.95763531      -1.34358868        8 
O       0.80419124      -2.62716179       0.20847284        8 
O      -1.21321192      -1.67266512      -0.08044344        8 
C       0.23423037      -3.90374419      -0.14037286        6 
C      -3.76334142       0.82983109       0.27454279        6 
C       0.90561934       1.87719736      -0.35872657        6 
C       2.14875138       2.25484200       0.47695210        6 
C       2.91961441       0.89855988       0.49796847        6 
C       1.95018506       0.00248502      -0.30342739        6 
O       1.42153553       0.90243899      -1.27729658        8 
H      -0.20942149       1.45716032       1.50781451        1 
H       1.02787522      -0.49385789       1.60771044        1 
H      -0.56470945      -4.16692013       0.55437112        1 
H      -3.84194861      -0.13406374      -0.23032699        1 
H       0.43785975       2.68548971      -0.91453920        1 
H       2.72339412       3.03159786      -0.02927153        1 
H       1.88966386       2.62092559       1.47258151        1 
H       3.87354505       0.97724275      -0.02517760        1 
H       3.11232513       0.52221495       1.50443408        1 
H       2.39001513      -0.86410043      -0.78864955        1 
H      -0.16577175      -3.87526336      -1.15486333        1 
H       1.05403822      -4.61515184      -0.07046202        1 
H      -4.02427220       1.62769767      -0.42257274        1 
H      -4.40806526       0.86012871       1.15047348        1 
