29
Lattice="0.0 0.0 0.0 0.0 0.0 0.0 0.0 0.0 0.0" Properties=species:S:1:pos:R:3:Z:I:1 pbc="F F F"
C      -0.02624541       0.85648946       0.58430852        6 
C       0.94603768      -0.35591809       0.76963327        6 
C      -1.48880923       0.54069575       0.33596956        6 
C       0.38937145      -1.75385356       0.53726653        6 
O      -2.16468504       1.68382487       0.08109404        8 
O      -2.01813545      -0.54033964       0.38126112        8 
O       0.11627872      -1.98861488      -0.75499018        8 
O       0.30497109      -2.58598370       1.40893357        8 
C      -0.48664877      -3.25840877      -1.05197970        6 
C      -3.58080347       1.54328839      -0.14539752        6 
C       0.67731596       1.65335187      -0.55920934        6 
C       1.89567601       2.39557012       0.02914048        6 
C       2.87852482       1.20627604       0.26003992        6 
C       2.04243814       0.01972854      -0.27305299        6 
O       1.28421113       0.61778843      -1.33522381        8 
H      -0.03181404       1.46166656       1.49543250        1 
H       1.34482225      -0.37341852       1.78269260        1 
H       0.15340249      -4.07748652      -0.72043467        1 
H      -4.06675205       1.12025265       0.73514389        1 
H       0.00741003       2.24425059      -1.17718768        1 
H       2.29234721       3.10399363      -0.69953532        1 
H       1.65479818       2.94485790       0.94137651        1 
H       3.78886980       1.32300445      -0.32958810        1 
H       3.16543479       1.07972515       1.30566906        1 
H       2.60953557      -0.82375174      -0.65821006        1 
H      -1.45684311      -3.32984585      -0.55762810        1 
H      -0.60525093      -3.27563240      -2.13328313        1 
H      -3.76581783       0.89598249      -1.00375107        1 
H      -3.94414689       2.55013896      -0.33813063        1 
