29
Lattice="0.0 0.0 0.0 0.0 0.0 0.0 0.0 0.0 0.0" Properties=species:S:1:pos:R:3:Z:I:1 pbc="F F F"
C      -0.49502039       0.40163618      -0.76038065        6 
C      -0.11187793      -1.03549896      -0.28690909        6 
C       0.28229510       1.52192061      -0.06097718        6 
C       1.31609244      -1.33299791       0.12524887        6 
O      -0.43931942       2.66252494      -0.03977636        8 
O       1.41647547       1.46182472       0.34087204        8 
O       2.17379776      -0.93258287      -0.83101946        8 
O       1.63144869      -2.01838232       1.06734610        8 
C       3.56974466      -1.13956070      -0.55688968        6 
C       0.20628112       3.80729436       0.54860278        6 
C      -1.96236817       0.42262187      -0.24477693        6 
C      -2.82406179      -0.68539913      -0.90112142        6 
C      -2.42047674      -1.93895994      -0.06434087        6 
C      -1.23839125      -1.35897000       0.73094451        6 
O      -1.75263143      -0.06300713       1.09579794        8 
H      -0.39291923       0.53619305      -1.83887506        1 
H      -0.23058645      -1.69013263      -1.15845725        1 
H       3.86365455      -0.55986909       0.31935591        1 
H       1.11285954       4.05926431      -0.00365871        1 
H      -2.41354043       1.40802368      -0.21267784        1 
H      -3.88528299      -0.45579637      -0.80074553        1 
H      -2.60662115      -0.79677291      -1.96627567        1 
H      -3.22086549      -2.23637240       0.61502093        1 
H      -2.14671592      -2.80171710      -0.67486658        1 
H      -0.91296944      -1.89937951       1.61468471        1 
H       3.77773962      -2.19653735      -0.38415285        1 
H       4.09441771      -0.78312408      -1.44058940        1 
H       0.46231747       3.60368720       1.58897379        1 
H      -0.52096726       4.61349210       0.48291401        1 
