29
Lattice="0.0 0.0 0.0 0.0 0.0 0.0 0.0 0.0 0.0" Properties=species:S:1:pos:R:3:Z:I:1 pbc="F F F"
C       0.51731037       0.90864837       0.38651847        6 
C       0.56881416      -0.58440729       0.83168911        6 
C      -0.82267981       1.52164870       0.03763419        6 
C      -0.56569433      -1.50465133       0.42100482        6 
O      -1.80218985       1.03805485       0.82832609        8 
O      -0.97581343       2.44121116      -0.72801954        8 
O      -1.13230074      -1.15889167      -0.74641138        8 
O      -0.85081548      -2.50831565       1.03181194        8 
C      -2.15052376      -2.04150740      -1.24846745        6 
C      -3.11912626       1.57587855       0.61392613        6 
C       1.60852020       0.96986337      -0.71833309        6 
C       2.98171055       1.08909982      -0.02882284        6 
C       3.10126662      -0.32765067       0.61543447        6 
C       1.84551028      -1.02899552       0.04192204        6 
O       1.65076297      -0.37698387      -1.21843560        8 
H       0.83961886       1.52029946       1.23725571        1 
H       0.69013280      -0.70174091       1.90675985        1 
H      -1.73978264      -3.03691869      -1.42333542        1 
H      -3.45104775       1.35822161      -0.40269875        1 
H       1.39575663       1.66779572      -1.52260595        1 
H       3.76088014       1.24970403      -0.77503004        1 
H       3.02848061       1.90297983       0.69751663        1 
H       4.00537607      -0.84184434       0.28778481        1 
H       3.10252187      -0.30753010       1.70722057        1 
H       1.93176874      -2.10385208      -0.10228778        1 
H      -2.97630903      -2.11405358      -0.53857820        1 
H      -2.48265356      -1.59529578      -2.18312761        1 
H      -3.12512610       2.65512509       0.77211392        1 
H      -3.75716235       1.07663708       1.33974894        1 
