29
Lattice="0.0 0.0 0.0 0.0 0.0 0.0 0.0 0.0 0.0" Properties=species:S:1:pos:R:3:Z:I:1 pbc="F F F"
C      -0.69594836       0.61221423       0.60161161        6 
C       0.83662986       0.32376001       0.64614547        6 
C      -1.52454614      -0.46405578      -0.07185470        6 
C       1.20125674      -1.14674773       0.56105189        6 
O      -2.79523903      -0.42710752       0.38975524        8 
O      -1.15094495      -1.21531482      -0.93537147        8 
O       2.24438393      -1.37759019      -0.25395465        8 
O       0.64546942      -2.00405954       1.20337757        8 
C       2.63671619      -2.75738971      -0.39391527        6 
C      -3.70731682      -1.36617899      -0.21083361        6 
C      -0.69315573       1.86632422      -0.32990612        6 
C      -0.03085352       3.06365515       0.39375594        6 
C       1.48126608       2.71234441       0.23715460        6 
C       1.38449698       1.31831432      -0.41621616        6 
O       0.27610001       1.49515885      -1.31461141        8 
H      -1.11962306       0.82817451       1.58056172        1 
H       1.20562529       0.61183754       1.63679018        1 
H       2.94193582      -3.16730150       0.56989456        1 
H      -3.34520402      -2.38570924      -0.07276810        1 
H      -1.64820199       2.07571504      -0.80737782        1 
H      -0.27971820       3.99837605      -0.11011994        1 
H      -0.35005234       3.14569882       1.43478679        1 
H       1.97890840       3.40762646      -0.44041075        1 
H       2.02705940       2.70604683       1.18266829        1 
H       2.25531989       0.97331364      -0.96345261        1 
H       1.80566658      -3.34168096      -0.79023443        1 
H       3.47100500      -2.75081517      -1.09172230        1 
H      -3.81494135      -1.16447284      -1.27799169        1 
H      -4.65428897      -1.22071275       0.30431043        1 
