29
Lattice="0.0 0.0 0.0 0.0 0.0 0.0 0.0 0.0 0.0" Properties=species:S:1:pos:R:3:Z:I:1 pbc="F F F"
C      -0.44069365      -0.90110637       0.42983481        6 
C      -0.67715934       0.63042360       0.70490067        6 
C       0.91302150      -1.33463395      -0.10724771        6 
C       0.36641407       1.67744924       0.35123008        6 
O       1.78696347      -1.48765111       0.91379068        8 
O       1.18613416      -1.55180796      -1.25896361        8 
O       1.42910367       1.20407614      -0.30764351        8 
O       0.21679570       2.84374626       0.63318193        8 
C       2.41644688       2.16528523      -0.72468934        6 
C       3.13031152      -1.83696131       0.53940775        6 
C      -1.58218425      -1.19406321      -0.58524509        6 
C      -2.92141477      -1.29813946       0.17092261        6 
C      -3.17763896       0.19836266       0.52506876        6 
C      -1.96298236       0.87448673      -0.14806160        6 
O      -1.71949940       0.05072589      -1.29055669        8 
H      -0.58941344      -1.44741150       1.36303668        1 
H      -0.88596020       0.79720820       1.76284515        1 
H       1.95365921       2.94217685      -1.33368903        1 
H       3.56182728      -1.05351494      -0.08597052        1 
H      -1.35963428      -1.98774269      -1.29240975        1 
H      -3.69682691      -1.68716446      -0.49066398        1 
H      -2.86499882      -1.94703589       1.04711836        1 
H      -4.10474671       0.56173123       0.07988094        1 
H      -3.22125543       0.39005711       1.59885672        1 
H      -2.10191236       1.90968576      -0.44878652        1 
H       2.89153109       2.62143818       0.14530732        1 
H       3.13771378       1.59841286      -1.30862164        1 
H       3.14327466      -2.78019334      -0.00878440        1 
H       3.68004098      -1.92774508       1.47366790        1 
