29
Lattice="0.0 0.0 0.0 0.0 0.0 0.0 0.0 0.0 0.0" Properties=species:S:1:pos:R:3:Z:I:1 pbc="F F F"
C      -0.48675227       0.72199340      -0.74681578        6 
C      -0.75853876      -0.82525681      -0.65230247        6 
C       0.97896843       1.10519710      -0.61239684        6 
C       0.43803186      -1.71876462      -0.38919137        6 
O       1.18294172       2.09129741       0.27704471        8 
O       1.85859955       0.61262416      -1.27690925        8 
O       1.08427086      -1.38134587       0.74222865        8 
O       0.74557331      -2.65489575      -1.08575781        8 
C       2.28008841      -2.12578735       1.03247934        6 
C       2.54945132       2.51431073       0.44546725        6 
C      -1.45190741       1.26211092       0.33701735        6 
C      -2.90967300       1.15028573      -0.16764776        6 
C      -3.16340076      -0.38189276      -0.02424882        6 
C      -1.79596900      -0.85162196       0.51589900        6 
O      -1.38770171       0.24199631       1.34449319        8 
H      -0.76997641       1.07431979      -1.74302291        1 
H      -1.19773387      -1.19796375      -1.57564678        1 
H       2.05905665      -3.19029067       1.12089024        1 
H       2.95662886       2.87517808      -0.49981194        1 
H      -1.16728381       2.21853048       0.76281661        1 
H      -3.57577444       1.72456180       0.47750762        1 
H      -3.03193918       1.51421997      -1.18996970        1 
H      -3.94803773      -0.58805925       0.70487974        1 
H      -3.43300032      -0.86932844      -0.96261730        1 
H      -1.80295260      -1.77158143       1.09602434        1 
H       3.01404103      -1.97112684       0.24007229        1 
H       2.64390978      -1.73000067       1.97828848        1 
H       3.15722565       1.68342274       0.80613888        1 
H       2.51555051       3.31334689       1.18246796        1 
