29
Lattice="0.0 0.0 0.0 0.0 0.0 0.0 0.0 0.0 0.0" Properties=species:S:1:pos:R:3:Z:I:1 pbc="F F F"
C      -0.63474064       0.69972441       0.56228095        6 
C       0.82811874       0.16384010       0.58202171        6 
C      -1.64378906      -0.18579851      -0.14731230        6 
C       0.98459190      -1.33546063       0.42299130        6 
O      -2.81306954      -0.19522744       0.53498011        8 
O      -1.47906674      -0.75448726      -1.19451187        8 
O       2.21123835      -1.65374299      -0.03760908        8 
O       0.14875490      -2.15274227       0.71674362        8 
C       2.47695092      -3.06076330      -0.20185499        6 
C      -3.86822431      -0.98187392      -0.04849130        6 
C      -0.42098636       1.98182060      -0.30648359        6 
C       0.42195110       3.02109097       0.47269288        6 
C       1.85906472       2.43343014       0.30483760        6 
C       1.54067949       1.11270319      -0.42648278        6 
O       0.48439397       1.51227580      -1.30979750        8 
H      -1.00815999       0.93060087       1.55785521        1 
H       1.23906226       0.34695095       1.58138715        1 
H       2.39557270      -3.57889329       0.75482896        1 
H      -3.55450979      -2.02242981      -0.14161522        1 
H      -1.32543780       2.36428691      -0.77505004        1 
H       0.33425100       4.00512967       0.01045454        1 
H       0.11137891       3.10967152       1.51605063        1 
H       2.47534662       3.07282839      -0.32878533        1 
H       2.37986717       2.28444275       1.25289367        1 
H       2.34923957       0.66016951      -0.99152800        1 
H       1.77101518      -3.49659252      -0.90982302        1 
H       3.49289099      -3.11973914      -0.58590816        1 
H      -4.13357832      -0.59671007      -1.03452963        1 
H      -4.70879747      -0.89326775       0.63647904        1 
