29
Lattice="0.0 0.0 0.0 0.0 0.0 0.0 0.0 0.0 0.0" Properties=species:S:1:pos:R:3:Z:I:1 pbc="F F F"
C      -0.91845756       0.44056657      -0.72633677        6 
C      -0.04489432      -0.85923775      -0.62580316        6 
C      -0.20416322       1.77393980      -0.56383396        6 
C       1.42284330      -0.68147477      -0.27566295        6 
O      -0.01335474       2.10005356       0.72395375        8 
O       0.08247682       2.48877408      -1.49392957        8 
O       1.98728219      -1.88862965      -0.04904564        8 
O       2.04044317       0.35169052      -0.23728439        8 
C       3.39638421      -1.88197631       0.25127970        6 
C       0.75587222       3.29161050       0.95955342        6 
C      -1.98793383       0.14484845       0.36992245        6 
C      -3.00676663      -0.87169351      -0.18526148        6 
C      -2.16102833      -2.18083490      -0.15874265        6 
C      -0.83579150      -1.66635049       0.44681984        6 
O      -1.26710510      -0.63298063       1.33818543        8 
H      -1.37491028       0.49056784      -1.71450908        1 
H      -0.04899013      -1.39251333      -1.58012835        1 
H       3.95923996      -1.44693599      -0.57583637        1 
H       0.28329451       4.15538198       0.48941621        1 
H      -2.40367199       1.02702521       0.84857603        1 
H      -3.86873167      -0.94205643       0.47977622        1 
H      -3.36600094      -0.60670579      -1.18141374        1 
H      -2.60656948      -2.92935684       0.49780209        1 
H      -2.02655584      -2.63138270      -1.14411459        1 
H      -0.24210288      -2.40078883       0.98268178        1 
H       3.58915695      -1.30837236       1.15901068        1 
H       3.66618558      -2.92603555       0.39283977        1 
H       1.76183132       3.16191264       0.55761996        1 
H       0.78570063       3.40834849       2.04063735        1 
