29
Lattice="0.0 0.0 0.0 0.0 0.0 0.0 0.0 0.0 0.0" Properties=species:S:1:pos:R:3:Z:I:1 pbc="F F F"
C      -0.62050508      -0.88055533       0.49639477        6 
C      -0.37803771       0.66241032       0.58478796        6 
C       0.54198824      -1.72587447       0.00404024        6 
C       0.87981759       1.17517568      -0.08367425        6 
O       1.59130375      -1.60068471       0.84510332        8 
O       0.52190417      -2.46816830      -0.94277397        8 
O       1.21985232       2.37676000       0.43784644        8 
O       1.48084031       0.65010374      -0.98579990        8 
C       2.35763173       3.02314346      -0.16374675        6 
C       2.79448885      -2.28535559       0.45172377        6 
C      -1.87366910      -0.94932375      -0.41339973        6 
C      -3.11795770      -0.59450745       0.42539151        6 
C      -2.90479236       0.93702836       0.63266794        6 
C      -1.62639987       1.17551826      -0.20495243        6 
O      -1.73364931       0.21147250      -1.25245519        8 
H      -0.84658900      -1.25529335       1.49861204        1 
H      -0.38542834       1.02143872       1.61296191        1 
H       3.25007702       2.40645378      -0.04679242        1 
H       3.14085544      -1.90150105      -0.50896010        1 
H      -1.93145811      -1.84191612      -1.02890196        1 
H      -4.02616348      -0.79508235      -0.14470997        1 
H      -3.17169313      -1.15386035       1.36157254        1 
H      -3.73542347       1.51571592       0.22648232        1 
H      -2.77557761       1.21914440       1.67956036        1 
H      -1.51713859       2.17368404      -0.62399555        1 
H       2.17980545       3.19843942      -1.22579650        1 
H       2.47071473       3.96513583       0.36822197        1 
H       2.61682629      -3.35889433       0.37265251        1 
H       3.51888932      -2.07343441       1.23522739        1 
