29
Lattice="0.0 0.0 0.0 0.0 0.0 0.0 0.0 0.0 0.0" Properties=species:S:1:pos:R:3:Z:I:1 pbc="F F F"
C      -0.77338796      -0.37356329      -0.54195033        6 
C       0.77507462      -0.44256797      -0.62936729        6 
C      -1.38125647       1.01178868      -0.45611690        6 
C       1.51609150       0.67407773       0.08556513        6 
O      -2.59938693       0.97477857       0.12332573        8 
O      -0.87986326       2.01450858      -0.89716811        8 
O       2.76337005       0.79316415      -0.42898047        8 
O       1.10857466       1.33168156       1.00584279        8 
C       3.60295382       1.78444329       0.19151886        6 
C      -3.28848125       2.23679866       0.21847372        6 
C      -1.09695179      -1.44985884       0.53997412        6 
C      -1.11291684      -2.82264685      -0.16115705        6 
C       0.39980781      -2.97517046      -0.51563885        6 
C       1.00617034      -1.74565822       0.20703182        6 
O       0.11372740      -1.53387829       1.30664130        8 
H      -1.16697342      -0.73578602      -1.50014573        1 
H       1.14694273      -0.52932653      -1.64833896        1 
H       3.15606680       2.77457258       0.09079242        1 
H      -3.46568458       2.64993344      -0.77562177        1 
H      -1.93658992      -1.22014089       1.18802814        1 
H      -1.43302944      -3.59546708       0.53935506        1 
H      -1.77042144      -2.85254078      -1.03201261        1 
H       0.81585595      -3.89877043      -0.11137713        1 
H       0.59479729      -2.96102905      -1.59021893        1 
H       2.02349046      -1.87001834       0.57147740        1 
H       3.74208303       1.55915204       1.25011447        1 
H       4.55101804       1.73528106      -0.33972819        1 
H      -2.69924174       2.94370714       0.80356694        1 
H      -4.23001578       2.01520674       0.71614832        1 
