29
Lattice="0.0 0.0 0.0 0.0 0.0 0.0 0.0 0.0 0.0" Properties=species:S:1:pos:R:3:Z:I:1 pbc="F F F"
C       0.62141122      -0.81558971      -0.65453365        6 
C       0.55314935       0.76631687      -0.76720392        6 
C      -0.71738001      -1.52551443      -0.57959256        6 
C      -0.82643253       1.36615600      -0.52189401        6 
O      -1.04591727      -1.87725710       0.68124015        8 
O      -1.43124904      -1.71374936      -1.53105466        8 
O      -0.90450405       2.05575877       0.63250556        8 
O      -1.75131297       1.25012623      -1.28703595        8 
C      -2.18922721       2.62833823       0.93688708        6 
C      -2.33560103      -2.49808949       0.84149903        6 
C       1.59989290      -0.98471296       0.54006481        6 
C       3.03961183      -0.77456857       0.02760703        6 
C       3.03181176       0.76282527      -0.22893652        6 
C       1.62388591       1.14939762       0.28302657        6 
O       1.37990000       0.19404721       1.32610862        8 
H       1.06884986      -1.19501660      -1.57490848        1 
H       0.82545688       1.06952134      -1.77924854        1 
H      -2.48983543       3.33104126       0.15836561        1 
H      -2.37434159      -3.44261189       0.29639342        1 
H       1.42942266      -1.86824244       1.14823709        1 
H       3.75536189      -1.04208606       0.80637471        1 
H       3.26870181      -1.36240853      -0.86332026        1 
H       3.80057628       1.26929501       0.35576131        1 
H       3.17902997       1.02563377      -1.27873895        1 
H       1.52612483       2.15563717       0.67820005        1 
H      -2.94272830       1.84370778       1.02118973        1 
H      -2.05939324       3.13788333       1.88896696        1 
H      -3.12109115      -1.83838946       0.47031535        1 
H      -2.44406596      -2.66714801       1.91054266        1 
