43
Lattice="0.0 0.0 0.0 0.0 0.0 0.0 0.0 0.0 0.0" Properties=species:S:1:pos:R:3:Z:I:1 pbc="F F F"
C      -0.72189504      -0.15144276       0.71590161        6 
C       0.84878652       0.00629074       0.70348282        6 
C      -1.20119751      -1.49845067       0.18276071        6 
C       1.61343087      -1.14487579       0.07548605        6 
O      -2.40258346      -1.45846810      -0.41484223        8 
O      -0.59356315      -2.52851931       0.35215460        8 
O       2.22531685      -1.87958301       1.02185014        8 
O       1.71127190      -1.36077972      -1.10907265        8 
C       2.88646167      -3.06629624       0.55335698        6 
C      -2.92402156      -2.72402334      -0.86633306        6 
C      -1.15501632       1.19617384       0.04590983        6 
C      -0.85512405       2.33038223       1.07068891        6 
C       0.68019987       2.49154554       0.92774293        6 
C       1.00700320       1.36001674      -0.07138858        6 
O      -0.13351003       1.37977662      -0.94464469        8 
H      -1.07071695      -0.16402180       1.75233493        1 
H       1.21848164       0.11022100       1.72065621        1 
H       3.67749764      -2.81261483      -0.15429649        1 
H      -3.09978014      -3.38673726      -0.01775408        1 
H      -1.38129698       3.23949252       0.77663254        1 
H      -1.18305754       2.07202606       2.07749313        1 
H       0.93636960       3.45491881       0.48230815        1 
H       1.23137906       2.39379914       1.86293385        1 
H       3.30333191      -3.53718099       1.44115976        1 
H       2.16343835      -3.72594784       0.07103847        1 
H      -2.22641613      -3.19802662      -1.55733124        1 
H      -3.86076167      -2.48631637      -1.36593557        1 
C      -2.51376163       1.33081717      -0.61101557        6 
C       2.27136886       1.54156419      -0.88556073        6 
O       3.36802815       1.31707655      -0.01203468        8 
H       2.30030780       2.56214556      -1.29310484        1 
H       2.28104549       0.82791531      -1.71397232        1 
C       4.61030668       1.26819212      -0.68788492        6 
H       5.37626678       1.06992131       0.06236905        1 
H       4.83467383       2.22219275      -1.18542430        1 
H       4.62087572       0.46631382      -1.43825936        1 
O      -3.49534240       1.20642652       0.40420726        8 
H      -2.65039553       0.57434430      -1.38674367        1 
H      -2.56683765       2.32472498      -1.07930201        1 
C      -4.81074998       1.14731844      -0.10707951        6 
H      -5.48478872       1.04899099       0.74440457        1 
H      -4.94004290       0.28125564      -0.77054636        1 
H      -5.06878653       2.05969300      -0.66372936        1 
