43
Lattice="0.0 0.0 0.0 0.0 0.0 0.0 0.0 0.0 0.0" Properties=species:S:1:pos:R:3:Z:I:1 pbc="F F F"
C      -0.61523012       0.09747777       0.85643121        6 
C       0.95306930      -0.02766277       0.70059387        6 
C      -1.43290082      -1.17922351       0.77406726        6 
C       1.50246045      -1.25173643      -0.03529961        6 
O      -1.87323213      -1.46155353      -0.46990797        8 
O      -1.62044967      -1.90169290       1.72057096        8 
O       0.81909562      -2.36469423       0.28346820        8 
O       2.48525522      -1.27760676      -0.73500502        8 
C       1.28860157      -3.59777683      -0.28722133        6 
C      -2.61233777      -2.68538980      -0.60691515        6 
C      -0.92781130       1.32859807      -0.07271491        6 
C      -0.66883882       2.57923149       0.79255508        6 
C       0.86577935       2.48048235       0.98214339        6 
C       1.24419099       1.33322412      -0.00537738        6 
O       0.18649882       1.36798788      -0.98089506        8 
H      -0.79614798       0.40520953       1.88614625        1 
H       1.42119293      -0.06905448       1.68648601        1 
H       2.33069461      -3.77224757      -0.01680035        1 
H      -3.51657274      -2.65576437       0.00325055        1 
H      -0.94479603       3.47158565       0.22673487        1 
H      -1.23864590       2.57380881       1.72151068        1 
H       1.37271150       3.40243083       0.69611547        1 
H       1.16409820       2.24790757       2.00499258        1 
H       0.64821707      -4.36965328       0.13393915        1 
H       1.19841489      -3.57016325      -1.37447351        1 
H      -2.00274451      -3.53583409      -0.29806557        1 
H      -2.86450383      -2.75745131      -1.66312942        1 
C      -2.22207447       1.33951302      -0.85779107        6 
C       2.58276607       1.54503754      -0.68499123        6 
O       3.58005084       1.42297771       0.31614428        8 
H       2.59484331       2.55472085      -1.12187420        1 
H       2.73205404       0.81406027      -1.48023071        1 
C       4.88473639       1.29249435      -0.21704964        6 
H       5.56836103       1.20020914       0.62755471        1 
H       5.16732550       2.17470386      -0.80916068        1 
H       4.96250904       0.39724964      -0.84618831        1 
O      -3.28290972       1.17533109       0.07006306        8 
H      -2.21970071       0.53187618      -1.59475919        1 
H      -2.31376696       2.29942617      -1.38606947        1 
C      -4.53345989       0.96125422      -0.55399634        6 
H      -5.27246385       0.84012988       0.23835084        1 
H      -4.51576193       0.05428913      -1.17404956        1 
H      -4.82068459       1.81412040      -1.18473598        1 
