43
Lattice="0.0 0.0 0.0 0.0 0.0 0.0 0.0 0.0 0.0" Properties=species:S:1:pos:R:3:Z:I:1 pbc="F F F"
C      -0.71324575       0.13527996      -0.64639512        6 
C       0.83875695       0.11781121      -0.72217401        6 
C      -1.29074737       1.13237493       0.34354145        6 
C       1.59587082       1.42038274      -0.51870785        6 
O      -2.47825529       1.59887644      -0.10704081        8 
O      -0.81699056       1.44369345       1.40644585        8 
O       0.78674432       2.49280166      -0.63000387        8 
O       2.79918741       1.51342411      -0.48539694        8 
C       1.42231755       3.78145902      -0.58078922        6 
C      -3.17257355       2.50163218       0.76960131        6 
C      -0.94661371      -1.30773409      -0.06882598        6 
C      -0.46144357      -2.35555706      -1.10881513        6 
C       1.07224540      -2.36276471      -0.86089953        6 
C       1.21381935      -1.16804260       0.10684484        6 
O       0.06151610      -1.36046318       0.94914865        8 
H      -1.18946362       0.27290387      -1.61383110        1 
H       1.10293263      -0.09404522      -1.76384362        1 
H       2.16081381       3.87495015      -1.37834176        1 
H      -2.57808320       3.40007906       0.94397338        1 
H      -0.91295374      -3.32663411      -0.90188793        1 
H      -0.73840642      -2.07438219      -2.12539727        1 
H       1.38986979      -3.27519792      -0.35371506        1 
H       1.67279660      -2.25000696      -1.76299674        1 
H       0.61938194       4.50356800      -0.71170896        1 
H       1.91098676       3.92424186       0.38394829        1 
H      -3.38143699       2.02342847       1.72845385        1 
H      -4.09905281       2.74955151       0.25589120        1 
C      -2.30403103      -1.59723824       0.53800516        6 
C       2.47194550      -1.15209298       0.94838073        6 
O       3.57030781      -1.39309735       0.08709656        8 
H       2.39278420      -1.94407263       1.70719364        1 
H       2.57927581      -0.19328175       1.46630489        1 
C       4.80693038      -0.96341341       0.62510435        6 
H       5.57595395      -1.21299924      -0.10655689        1 
H       5.03436610      -1.47659600       1.57059283        1 
H       4.80316433       0.12054352       0.78940461        1 
O      -3.24996444      -1.60771910      -0.51499207        8 
H      -2.56469801      -0.84325026       1.29273047        1 
H      -2.26517157      -2.57380675       1.04212180        1 
C      -4.58299822      -1.73201004      -0.06011553        6 
H      -5.22462856      -1.72837859      -0.94137414        1 
H      -4.86152998      -0.89153638       0.59085323        1 
H      -4.73478148      -2.67084865       0.49111065        1 
