43
Lattice="0.0 0.0 0.0 0.0 0.0 0.0 0.0 0.0 0.0" Properties=species:S:1:pos:R:3:Z:I:1 pbc="F F F"
C      -0.90955493       0.09576594      -0.67569284        6 
C       0.66147274       0.15899581      -0.70345816        6 
C      -1.60551357       1.28639234      -0.02668687        6 
C       1.30159698       1.35924450      -0.02620986        6 
O      -1.68319712       2.29208480      -0.92857083        8 
O      -2.05945744       1.35625950       1.08525749        8 
O       2.60630970       1.44056969      -0.36830643        8 
O       0.76229426       2.17129046       0.68232977        8 
C       3.33901068       2.53696936       0.20614747        6 
C      -2.20894543       3.53292828      -0.42716434        6 
C      -1.14795822      -1.28362588       0.01258984        6 
C      -0.80883679      -2.38478868      -1.02570595        6 
C       0.74133345      -2.34088894      -1.03829143        6 
C       1.02157561      -1.21557926      -0.01330410        6 
O      -0.04407724      -1.36986383       0.93153444        8 
H      -1.27655919       0.07168408      -1.70092229        1 
H       1.03455663       0.15778742      -1.72668071        1 
H       3.35029599       2.46075115       1.29503085        1 
H      -1.59376688       3.88778488       0.40078523        1 
H      -1.17883949      -3.34916032      -0.67347489        1 
H      -1.26276705      -2.18872282      -1.99704816        1 
H       1.17446195      -3.27672649      -0.68172733        1 
H       1.17427877      -2.12637322      -2.01484828        1 
H       4.34664634       2.45252233      -0.19480109        1 
H       2.88999392       3.48937489      -0.07956250        1 
H      -3.23782028       3.40396542      -0.08698413        1 
H      -2.16840655       4.22636980      -1.26472810        1 
C      -2.45234336      -1.49677014       0.75344629        6 
C       2.34381560      -1.34023288       0.71606528        6 
O       3.37333985      -1.45759732      -0.24665138        8 
H       2.29874312      -2.23707099       1.35070538        1 
H       2.51365267      -0.47665374       1.37196669        1 
C       4.66540020      -1.32730461       0.30922512        6 
H       5.37968002      -1.43343429      -0.50746959        1 
H       4.86236789      -2.10423362       1.06159956        1 
H       4.79750071      -0.34184946       0.77722619        1 
O      -3.49953924      -1.27701372      -0.18057147        8 
H      -2.52448567      -0.80277554       1.59309502        1 
H      -2.48280950      -2.52857494       1.13312716        1 
C      -4.78128159      -1.29651278       0.41889933        6 
H      -5.50923833      -1.11253904      -0.37184901        1 
H      -4.87168001      -0.51495300       1.18441129        1 
H      -4.99284061      -2.27184902       0.87983144        1 
