43
Lattice="0.0 0.0 0.0 0.0 0.0 0.0 0.0 0.0 0.0" Properties=species:S:1:pos:R:3:Z:I:1 pbc="F F F"
C      -0.83097942       0.05002099       0.88437641        6 
C       0.74125630       0.10681098       0.93807954        6 
C      -1.51285315      -1.22264018       0.40231132        6 
C       1.56908680      -1.16603710       0.89198550        6 
O      -1.30250747      -1.49811193      -0.89460058        8 
O      -2.27466632      -1.85762837       1.09516098        8 
O       1.22461270      -2.01591261      -0.09305808        8 
O       2.49420652      -1.37171360       1.64072833        8 
C       2.00335643      -3.22147893      -0.19265877        6 
C      -1.93310800      -2.68462027      -1.39726625        6 
C      -1.09965243       1.26946446      -0.06431993        6 
C      -0.66277239       2.56682119       0.67459356        6 
C       0.87570996       2.55607168       0.46122818        6 
C       1.05901881       1.17037785      -0.19196568        6 
O      -0.07958178       1.10053455      -1.05784886        8 
H      -1.24490359       0.22438957       1.87450010        1 
H       1.02706945       0.53820322       1.89496486        1 
H       1.92915989      -3.80101373       0.72850715        1 
H      -3.01862918      -2.61816634      -1.30264338        1 
H      -1.12996685       3.43641392       0.21020782        1 
H      -0.95920848       2.55502136       1.72374884        1 
H       1.18670379       3.33204479      -0.24103563        1 
H       1.45519638       2.67112977       1.37645913        1 
H       1.57569709      -3.77103787      -1.02861528        1 
H       3.05172411      -2.98619181      -0.38345633        1 
H      -1.58346095      -3.56217271      -0.85029716        1 
H      -1.64201022      -2.74496066      -2.44391207        1 
C      -2.46226674       1.35033685      -0.72324815        6 
C       2.32098278       0.97287958      -1.00292884        6 
O       3.42104506       1.20780110      -0.14499059        8 
H       2.31827381       1.67918770      -1.84569781        1 
H       2.34900147      -0.04427279      -1.41540601        1 
C       4.65802329       0.79512049      -0.69168829        6 
H       5.42558222       1.02003740       0.04846040        1 
H       4.88624680       1.33165457      -1.62348368        1 
H       4.66116135      -0.28502988      -0.89229629        1 
O      -3.42272093       1.45429956       0.31220730        8 
H      -2.64436594       0.46532123      -1.34302947        1 
H      -2.49212905       2.23359358      -1.37814985        1 
C      -4.75582897       1.39601160      -0.15802184        6 
H      -5.40656097       1.47465448       0.71267231        1 
H      -4.95488832       0.44435876      -0.66973356        1 
H      -4.97457164       2.22283853      -0.84834046        1 
