43
Lattice="0.0 0.0 0.0 0.0 0.0 0.0 0.0 0.0 0.0" Properties=species:S:1:pos:R:3:Z:I:1 pbc="F F F"
C      -0.86574400       0.15077929      -0.66612044        6 
C       0.69896109      -0.02683038      -0.68265293        6 
C      -1.43132723       1.46440102      -0.14149837        6 
C       1.50469423       1.02301553       0.06043460        6 
O      -0.57198160       2.48182117      -0.34774939        8 
O      -2.55995729       1.63690768       0.24843116        8 
O       2.29691769       1.70573580      -0.79101617        8 
O       1.49513402       1.21000455       1.25334039        8 
C       3.12608887       2.71436441      -0.19467124        6 
C      -1.02427840       3.79138050       0.03769081        6 
C      -1.33153622      -1.18197307       0.01280585        6 
C      -1.15591405      -2.31782389      -1.02864776        6 
C       0.38546025      -2.49509860      -1.04532656        6 
C       0.82464361      -1.43909272      -0.00222526        6 
O      -0.26254266      -1.44243521       0.93424614        8 
H      -1.21941665       0.15464919      -1.70175773        1 
H       1.07046697      -0.05594508      -1.70329839        1 
H       3.84111410       2.26205279       0.49509302        1 
H      -1.19400997       3.82760880       1.11459960        1 
H      -1.65796927      -3.21691721      -0.66843768        1 
H      -1.58753995      -2.06449479      -1.99650338        1 
H       0.67866345      -3.49171503      -0.71050008        1 
H       0.83794530      -2.32414047      -2.02225767        1 
H       3.64550537       3.19235615      -1.02263197        1 
H       2.51636355       3.43809884       0.34882112        1 
H      -1.94693157       4.04594067      -0.48526596        1 
H      -0.22147947       4.46831324      -0.24596233        1 
C      -2.65849363      -1.21677353       0.74163987        6 
C       2.11352752      -1.73737388       0.73706516        6 
O       3.18435610      -1.52978752      -0.17076312        8 
H       2.09638639      -2.77886685       1.08834899        1 
H       2.20177215      -1.07777147       1.60636218        1 
C       4.45550662      -1.66890736       0.43402002        6 
H       5.20123093      -1.48091001      -0.33877890        1 
H       4.60130906      -2.68183400       0.83459017        1 
H       4.58871489      -0.94501612       1.24954227        1 
O      -3.68009710      -1.15120174      -0.23877125        8 
H      -2.73854083      -0.38826853       1.44967110        1 
H      -2.71833207      -2.16230902       1.30070544        1 
C      -4.94277587      -0.80624415       0.30043978        6 
H      -5.65169577      -0.79419813      -0.52814642        1 
H      -4.90969122       0.18676148       0.76407937        1 
H      -5.27716594      -1.54390679       1.04429658        1 
