43
Lattice="0.0 0.0 0.0 0.0 0.0 0.0 0.0 0.0 0.0" Properties=species:S:1:pos:R:3:Z:I:1 pbc="F F F"
C      -0.82343236       0.12912526       0.90325316        6 
C       0.75639278       0.19567697       0.95073743        6 
C      -1.35851605      -1.24099430       0.51889024        6 
C       1.47499197      -1.13590414       0.85571059        6 
O      -1.52568126      -1.41853789      -0.80211286        8 
O      -1.60125795      -2.09570048       1.33781495        8 
O       1.36833886      -1.70362033      -0.36591865        8 
O       2.05664705      -1.65239269       1.77603133        8 
C       1.98387315      -2.99492473      -0.51539972        6 
C      -1.93798733      -2.73166798      -1.21277918        6 
C      -1.11739462       1.31615938      -0.06280187        6 
C      -0.73308093       2.62783420       0.68150099        6 
C       0.81147915       2.64848148       0.52012127        6 
C       1.04887209       1.27820072      -0.15291119        6 
O      -0.07314275       1.18484927      -1.04047368        8 
H      -1.22847280       0.31421637       1.89528591        1 
H       1.06267456       0.57929372       1.92107961        1 
H       1.56179893      -3.70239675       0.19983616        1 
H      -2.89767327      -2.99452259      -0.76534349        1 
H      -1.19995207       3.48424078       0.19271623        1 
H      -1.06166179       2.61955596       1.72137074        1 
H       1.12951269       3.44570713      -0.15476031        1 
H       1.35525922       2.75860702       1.45838600        1 
H       1.76677501      -3.30192067      -1.53657027        1 
H       3.06136293      -2.92592534      -0.35616485        1 
H      -1.19157553      -3.47071983      -0.91653449        1 
H      -2.01739998      -2.68364384      -2.29690296        1 
C      -2.47064029       1.33942342      -0.74900660        6 
C       2.32969105       1.12540801      -0.94477453        6 
O       3.39351995       1.03888929      -0.01304339        8 
H       2.45724982       1.99278970      -1.60823631        1 
H       2.27228876       0.22068710      -1.56037864        1 
C       4.64941201       0.80277146      -0.61959792        6 
H       5.38376114       0.72826947       0.18230217        1 
H       4.93103523       1.62483490      -1.29223292        1 
H       4.64545806      -0.13511108      -1.19228732        1 
O      -3.45419301       1.12274380       0.24971951        8 
H      -2.51154100       0.55947722      -1.51488461        1 
H      -2.61918574       2.31472107      -1.23453670        1 
C      -4.76796688       1.05987663      -0.27135439        6 
H      -5.43953356       0.88298728       0.56876667        1 
H      -4.87021046       0.23836125      -0.99380979        1 
H      -5.04915433       2.00050874      -0.76503983        1 
