43
Lattice="0.0 0.0 0.0 0.0 0.0 0.0 0.0 0.0 0.0" Properties=species:S:1:pos:R:3:Z:I:1 pbc="F F F"
C      -0.83009030       0.08513958      -0.70542870        6 
C       0.73798539       0.12211641      -0.76628175        6 
C      -1.45364525       1.22719482       0.07786169        6 
C       1.30611202       1.49957056      -0.44794535        6 
O      -2.39550615       1.84897720      -0.65521095        8 
O      -1.19504402       1.51810944       1.22104569        8 
O       2.51585770       1.48506778       0.13077522        8 
O       0.73852848       2.52032951      -0.75859989        8 
C       3.10342471       2.77623009       0.38415838        6 
C      -3.05381052       2.95630039      -0.01820332        6 
C      -1.04994342      -1.28344717       0.02767804        6 
C      -0.69435430      -2.41775075      -0.96582341        6 
C       0.85694640      -2.37078851      -0.94405977        6 
C       1.11904430      -1.18260237       0.02021412        6 
O       0.04100070      -1.31563731       0.95799772        8 
H      -1.27347775       0.07559981      -1.69705731        1 
H       1.04146299      -0.01409717      -1.80893185        1 
H       2.45489215       3.36568601       1.03298116        1 
H      -2.32721410       3.72807549       0.23978725        1 
H      -1.07279774      -3.37067846      -0.59166869        1 
H      -1.12661521      -2.25156497      -1.95246528        1 
H       1.27818777      -3.28261464      -0.51757542        1 
H       1.31058403      -2.21987939      -1.92337934        1 
H       4.05318017       2.56924591       0.87267001        1 
H       3.26230750       3.31147734      -0.55290183        1 
H      -3.56860307       2.62830495       0.88661756        1 
H      -3.76727801       3.32902091      -0.75011303        1 
C      -2.35178001      -1.46344753       0.78102639        6 
C       2.43343545      -1.27233568       0.76466307        6 
O       3.47405770      -1.29334994      -0.19795509        8 
H       2.43087286      -2.20330608       1.35036968        1 
H       2.54828161      -0.43041591       1.45207597        1 
C       4.75617950      -1.14611870       0.37569660        6 
H       5.48054917      -1.17926831      -0.43873826        1 
H       4.97736016      -1.95722060       1.08426985        1 
H       4.84741591      -0.18535367       0.90049921        1 
O      -3.40817319      -1.36883241      -0.15899030        8 
H      -2.44495215      -0.69872299       1.56137125        1 
H      -2.34745542      -2.44939768       1.26816901        1 
C      -4.68752753      -1.45216639       0.43782089        6 
H      -5.42224287      -1.35221799      -0.36128643        1 
H      -4.83935327      -0.64680369       1.16969707        1 
H      -4.83374475      -2.41787236       0.94214938        1 
