43
Lattice="0.0 0.0 0.0 0.0 0.0 0.0 0.0 0.0 0.0" Properties=species:S:1:pos:R:3:Z:I:1 pbc="F F F"
C      -0.64090635      -0.03083641       0.83960296        6 
C       0.91277249      -0.21776081       0.83702819        6 
C      -1.50364256      -1.24933494       0.56838753        6 
C       1.45791761      -1.49052784       0.20062825        6 
O      -2.67894030      -1.11641415       1.22167537        8 
O      -1.24189633      -2.21071828      -0.11176471        8 
O       1.24721748      -1.55977375      -1.12149361        8 
O       2.10447691      -2.30405656       0.81877763        8 
C       1.62626227      -2.78968120      -1.75824760        6 
C      -3.64078013      -2.16470214       1.01442215        6 
C      -0.82581571       1.17756377      -0.16851110        6 
C      -0.56623592       2.46017255       0.64770122        6 
C       0.95653266       2.31384621       0.92727271        6 
C       1.32662172       1.07489935       0.06010179        6 
O       0.34704487       1.11389363      -0.98783435        8 
H      -0.95090211       0.31156877       1.82584029        1 
H       1.30547648      -0.21628416       1.85081651        1 
H       1.03425444      -3.61095537      -1.35155673        1 
H      -3.24439555      -3.12228348       1.35571487        1 
H      -0.77729291       3.33377177       0.02786595        1 
H      -1.18223770       2.52144965       1.54381040        1 
H       1.51592670       3.18728552       0.58978811        1 
H       1.19307122       2.15848678       1.98021131        1 
H       1.40389663      -2.64853541      -2.81387714        1 
H       2.68783115      -2.99486451      -1.61018311        1 
H      -3.90002329      -2.24254486      -0.04298760        1 
H      -4.51088158      -1.87768789       1.60067516        1 
C      -2.04552591       1.18178902      -1.06680728        6 
C       2.72420276       1.10681405      -0.52375455        6 
O       3.63033215       1.06784272       0.56498367        8 
H       2.84991963       2.03048585      -1.10776486        1 
H       2.88055314       0.25609123      -1.19612346        1 
C       4.97924153       0.92843511       0.16125973        6 
H       5.58332007       0.89808755       1.06802648        1 
H       5.30284665       1.77632247      -0.45886941        1 
H       5.13088280      -0.00217884      -0.40237174        1 
O      -3.17259047       1.55091513      -0.29573586        8 
H      -2.18575692       0.19201675      -1.52490665        1 
H      -1.87396607       1.90347447      -1.87849515        1 
C      -4.38702472       1.44653796      -1.01119180        6 
H      -5.18460923       1.76332761      -0.33899822        1 
H      -4.57512528       0.41154786      -1.33028325        1 
H      -4.38780735       2.09338887      -1.89990277        1 
