43
Lattice="0.0 0.0 0.0 0.0 0.0 0.0 0.0 0.0 0.0" Properties=species:S:1:pos:R:3:Z:I:1 pbc="F F F"
C      -0.58966233      -0.02087346       0.85034917        6 
C       0.94397610      -0.24761422       0.80628693        6 
C      -1.46638795      -1.25948201       0.81013923        6 
C       1.47277357      -1.44007963       0.02103757        6 
O      -2.75644541      -0.91577179       1.01459253        8 
O      -1.10909640      -2.40145835       0.66018577        8 
O       0.80549377      -1.66220211      -1.12112187        8 
O       2.48553794      -2.02716328       0.32587384        8 
C       1.24207409      -2.78450017      -1.90272433        6 
C      -3.70819822      -1.99391435       1.01444274        6 
C      -0.79881504       1.15592489      -0.19188588        6 
C      -0.54992438       2.45879952       0.59487019        6 
C       0.96177160       2.29795506       0.92733396        6 
C       1.35626157       1.06883155       0.05573409        6 
O       0.38661927       1.09818947      -1.00132462        8 
H      -0.82702478       0.39995413       1.83148979        1 
H       1.39243847      -0.30634946       1.79510856        1 
H       1.10079795      -3.70919364      -1.34045441        1 
H      -3.48218903      -2.70566790       1.80987532        1 
H      -0.72692230       3.31560449      -0.05749645        1 
H      -1.19322787       2.55518427       1.46869781        1 
H       1.54098244       3.17289051       0.63082635        1 
H       1.15480369       2.11926616       1.98579576        1 
H       0.61429733      -2.78002116      -2.79130404        1 
H       2.29385817      -2.68219053      -2.17482823        1 
H      -3.69586760      -2.51455434       0.05524954        1 
H      -4.67480400      -1.52426565       1.18333818        1 
C      -2.01192912       1.13106651      -1.09946525        6 
C       2.75795010       1.10901156      -0.51480668        6 
O       3.65374387       1.12482755       0.58019102        8 
H       2.87333143       2.01108853      -1.13336534        1 
H       2.93828571       0.23731080      -1.15588085        1 
C       4.98309811       0.79202237       0.22207635        6 
H       5.57833972       0.83400414       1.13427930        1 
H       5.39420485       1.50482261      -0.50685245        1 
H       5.03366984      -0.22195853      -0.19429325        1 
O      -3.11501261       1.67803424      -0.40317074        8 
H      -2.22456022       0.10496767      -1.42855251        1 
H      -1.78178815       1.72965536      -1.99270067        1 
C      -4.33703282       1.51057150      -1.09022559        6 
H      -5.11758341       1.95388437      -0.47136595        1 
H      -4.56370985       0.44642775      -1.24705607        1 
H      -4.32514682       2.01476234      -2.06731355        1 
