43
Lattice="0.0 0.0 0.0 0.0 0.0 0.0 0.0 0.0 0.0" Properties=species:S:1:pos:R:3:Z:I:1 pbc="F F F"
C      -0.83581754       0.15064132      -0.70234958        6 
C       0.72724459      -0.01684323      -0.68207098        6 
C      -1.46093013       1.47621582      -0.28983853        6 
C       1.52474157       1.01543673       0.09772720        6 
O      -0.56492101       2.47396609      -0.20575558        8 
O      -2.65128275       1.66005592      -0.19842740        8 
O       2.32621950       1.71589961      -0.73350212        8 
O       1.49995955       1.18486436       1.29173071        8 
C       3.14759906       2.71352866      -0.10863030        6 
C      -1.08530642       3.78021120       0.09709441        6 
C      -1.31640491      -1.14986973       0.04391450        6 
C      -1.18298464      -2.32528267      -0.95441101        6 
C       0.35817266      -2.48692776      -1.03412271        6 
C       0.83589627      -1.43096747      -0.00477597        6 
O      -0.23442334      -1.40107166       0.95097790        8 
H      -1.16562285       0.07388928      -1.74238357        1 
H       1.12435018      -0.03662199      -1.69329451        1 
H       3.85232680       2.24931613       0.58380183        1 
H      -1.59041082       3.76986587       1.06353689        1 
H      -1.65744517      -3.21189299      -0.53114956        1 
H      -1.66194003      -2.11662447      -1.91033282        1 
H       0.67658698      -3.48313475      -0.72255286        1 
H       0.76651390      -2.30461448      -2.02860387        1 
H       3.67906575       3.20502902      -0.92089164        1 
H       2.53081171       3.42852065       0.43854430        1 
H      -1.78620247       4.09977308      -0.67543863        1 
H      -0.21777953       4.43550990       0.12614214        1 
C      -2.62820958      -1.12218388       0.80094214        6 
C       2.13091282      -1.75757309       0.71206769        6 
O       3.18926124      -1.57850827      -0.21603849        8 
H       2.09488270      -2.79781168       1.06590521        1 
H       2.25237217      -1.10059976       1.57956223        1 
C       4.46710195      -1.76085315       0.36237037        6 
H       5.20293271      -1.59237496      -0.42423731        1 
H       4.58864700      -2.77999244       0.75528760        1 
H       4.63988640      -1.04605357       1.17855946        1 
O      -3.67394585      -1.21263754      -0.14972494        8 
H      -2.71921241      -0.21128733       1.40042245        1 
H      -2.64732255      -1.98587951       1.48189582        1 
C      -4.92728637      -0.79793287       0.36065430        6 
H      -5.65581915      -0.92481993      -0.44065636        1 
H      -4.89626261       0.25708539       0.65741263        1 
H      -5.23299586      -1.41034222       1.22117903        1 
