43
Lattice="0.0 0.0 0.0 0.0 0.0 0.0 0.0 0.0 0.0" Properties=species:S:1:pos:R:3:Z:I:1 pbc="F F F"
C      -0.83055003      -0.05503251      -0.74874970        6 
C       0.74241853       0.03196685      -0.82435744        6 
C      -1.50270899       1.20829933      -0.23374285        6 
C       1.36950230       1.30777147      -0.29753111        6 
O      -1.22395533       2.22151869      -1.08873990        8 
O      -2.20598806       1.34288469       0.73357643        8 
O       0.93977013       1.60808700       0.94628289        8 
O       2.17015475       1.97680689      -0.90231578        8 
C       1.45541881       2.81794694       1.52431490        6 
C      -1.77225565       3.50628750      -0.75049345        6 
C      -1.02424763      -1.36763288       0.07204020        6 
C      -0.68100319      -2.55078969      -0.87274250        6 
C       0.86812855      -2.47426112      -0.92596967        6 
C       1.14021376      -1.25340869      -0.01442723        6 
O       0.10148941      -1.35268071       0.96724414        8 
H      -1.22299011      -0.18649457      -1.75805373        1 
H       1.08940067      -0.04623578      -1.85141862        1 
H       1.22888256       3.67242175       0.88442828        1 
H      -1.44170082       3.81181245       0.24357205        1 
H      -1.01907120      -3.48523271      -0.42193625        1 
H      -1.16264004      -2.45765150      -1.84598364        1 
H       1.32984937      -3.36411015      -0.49422097        1 
H       1.27301304      -2.33875388      -1.92848498        1 
H       0.95746573       2.91287007       2.48658634        1 
H       2.53686028       2.74944120       1.65499450        1 
H      -2.86281384       3.47261057      -0.76932943        1 
H      -1.39644029       4.19032026      -1.50807714        1 
C      -2.30763305      -1.54546966       0.85661768        6 
C       2.49444931      -1.24088904       0.66256577        6 
O       3.47404672      -1.20633071      -0.35838189        8 
H       2.59694033      -2.14562609       1.27932343        1 
H       2.58501863      -0.37093592       1.32583282        1 
C       4.78463474      -0.99708136       0.13147355        6 
H       5.45015903      -0.98199065      -0.73144150        1 
H       5.09370455      -1.80360437       0.81131356        1 
H       4.86190606      -0.03712462       0.65979788        1 
O      -3.37441760      -1.47717231      -0.07792958        8 
H      -2.40003780      -0.76497295       1.61439306        1 
H      -2.28896830      -2.52748728       1.35176930        1 
C      -4.64509704      -1.41226403       0.54162716        6 
H      -5.38837527      -1.35707932      -0.25442285        1 
H      -4.72786274      -0.52173515       1.17766998        1 
H      -4.84045371      -2.30639615       1.15076493        1 
