43
Lattice="0.0 0.0 0.0 0.0 0.0 0.0 0.0 0.0 0.0" Properties=species:S:1:pos:R:3:Z:I:1 pbc="F F F"
C      -0.91279770       0.12348551      -0.64331208        6 
C       0.65289713      -0.04409351      -0.71762001        6 
C      -1.36108277       1.36133101       0.12085398        6 
C       1.45143623       1.07341989      -0.08297213        6 
O      -0.90638486       2.46039609      -0.52697166        8 
O      -2.04833164       1.41847110       1.10645301        8 
O       2.24581287       1.67309409      -0.98991014        8 
O       1.40716522       1.39611389       1.08098595        8 
C       3.07647863       2.73365114      -0.49055437        6 
C      -1.16757490       3.72109088       0.11465418        6 
C      -1.33003625      -1.25355904      -0.05731785        6 
C      -1.04963246      -2.33000296      -1.14667262        6 
C       0.48650982      -2.52162171      -1.02141975        6 
C       0.83051532      -1.43060521       0.01482585        6 
O      -0.29032735      -1.49183290       0.90510502        8 
H      -1.31082778       0.25053902      -1.65117409        1 
H       0.97666821      -0.12591054      -1.75182151        1 
H       3.74301142       2.36101668       0.28904633        1 
H      -0.67274009       3.75338503       1.08674067        1 
H      -1.58916766      -3.24767181      -0.90900029        1 
H      -1.37180951      -2.00469951      -2.13636255        1 
H       0.73001228      -3.50272740      -0.60869197        1 
H       1.03196296      -2.40116453      -1.95733760        1 
H       3.64791328       3.08322863      -1.34761019        1 
H       2.46410771       3.53968503      -0.08266745        1 
H      -2.24007015       3.86864166       0.24783883        1 
H      -0.75663120       4.47606132      -0.55233094        1 
C      -2.68670082      -1.36748632       0.60788944        6 
C       2.10327977      -1.62542363       0.81100616        6 
O       3.19558661      -1.38320416      -0.06169860        8 
H       2.13461423      -2.65214712       1.20214533        1 
H       2.11646580      -0.92900605       1.65658554        1 
C       4.44835963      -1.43454964       0.59414640        6 
H       5.21091269      -1.21301065      -0.15291833        1 
H       4.63912426      -2.43047216       1.01754673        1 
H       4.50484836      -0.69181713       1.40170513        1 
O      -3.65670089      -0.97978807      -0.35449057        8 
H      -2.72858850      -0.71994139       1.48527232        1 
H      -2.84593945      -2.41027854       0.91933976        1 
C      -4.95432239      -0.85662474       0.19735327        6 
H      -5.61844328      -0.54119853      -0.60800268        1 
H      -4.97256423      -0.10585348       0.99812025        1 
H      -5.31135835      -1.81525276       0.60000118        1 
