43
Lattice="0.0 0.0 0.0 0.0 0.0 0.0 0.0 0.0 0.0" Properties=species:S:1:pos:R:3:Z:I:1 pbc="F F F"
C      -0.82839985       0.12732038       0.90472873        6 
C       0.75215184       0.19338100       0.94759734        6 
C      -1.37589303      -1.23833741       0.52358689        6 
C       1.46174929      -1.14409862       0.85820740        6 
O      -1.45559584      -1.44491779      -0.80244405        8 
O      -1.70566396      -2.06270567       1.34283536        8 
O       1.43456842      -1.67751855      -0.38189854        8 
O       1.96697084      -1.69575909       1.80361488        8 
C       2.05162754      -2.96879282      -0.52435580        6 
C      -1.88087639      -2.75418156      -1.21235225        6 
C      -1.12334654       1.30847920      -0.07126348        6 
C      -0.75107742       2.62500229       0.66873631        6 
C       0.79481979       2.64742041       0.52231387        6 
C       1.04324573       1.27833532      -0.15110063        6 
O      -0.07468800       1.17968860      -1.04366946        8 
H      -1.23322321       0.31978503       1.89507807        1 
H       1.05768081       0.57391328       1.91961177        1 
H       1.58703203      -3.68952718       0.15003951        1 
H      -2.86710529      -2.98654520      -0.80798425        1 
H      -1.21468584       3.47694236       0.16900868        1 
H      -1.09043133       2.62288182       1.70500592        1 
H       1.11822024       3.44631315      -0.14801482        1 
H       1.32910684       2.75774923       1.46610126        1 
H       1.89215027      -3.25211248      -1.56277358        1 
H       3.11851515      -2.90923911      -0.30194166        1 
H      -1.16796587      -3.50641260      -0.86989322        1 
H      -1.90648762      -2.72212661      -2.29966161        1 
C      -2.47289335       1.31815439      -0.76390688        6 
C       2.33067451       1.13681891      -0.93486226        6 
O       3.38498334       1.02438391       0.00595811        8 
H       2.46999748       2.01834100      -1.57687624        1 
H       2.27595385       0.24604559      -1.56979901        1 
C       4.64766576       0.80960107      -0.59425796        6 
H       5.37336275       0.70834532       0.21265918        1 
H       4.93614519       1.65437328      -1.23503646        1 
H       4.65102659      -0.10799093      -1.19890620        1 
O      -3.46173427       1.13878026       0.23674477        8 
H      -2.51625503       0.51480166      -1.50558992        1 
H      -2.61200190       2.27844272      -1.28119287        1 
C      -4.77389775       1.06771508      -0.28731987        6 
H      -5.44853838       0.91003920       0.55412454        1 
H      -4.87582346       0.23118020      -0.99236829        1 
H      -5.05129821       1.99824118      -0.80191082        1 
