43
Lattice="0.0 0.0 0.0 0.0 0.0 0.0 0.0 0.0 0.0" Properties=species:S:1:pos:R:3:Z:I:1 pbc="F F F"
C      -0.55573643       0.10197405       0.85474610        6 
C       0.98722211      -0.17395681       0.71069261        6 
C      -1.45103417      -1.12129965       0.97386297        6 
C       1.40462699      -1.37818782      -0.14276978        6 
O      -2.29029824      -1.31212476      -0.05954012        8 
O      -1.38411765      -1.86848049       1.91915725        8 
O       0.49102680      -2.36310451      -0.13326410        8 
O       2.43691872      -1.46698874      -0.76205849        8 
C       0.81114807      -3.54538424      -0.88716305        6 
C      -3.12580666      -2.47840244       0.02330833        6 
C      -0.77479683       1.29406871      -0.15038377        6 
C      -0.48120008       2.56689528       0.66906910        6 
C       1.02332871       2.35467695       0.97676331        6 
C       1.39161765       1.17312707       0.02503690        6 
O       0.38447735       1.24123739      -1.00556124        8 
H      -0.67358139       0.51773053       1.85829746        1 
H       1.46025566      -0.30129077       1.68563172        1 
H       1.75354732      -3.97271894      -0.54282754        1 
H      -3.77015602      -2.42714200       0.90212818        1 
H      -0.64057330       3.44596537       0.04093440        1 
H      -1.11274180       2.65557433       1.55261834        1 
H       1.62073620       3.23366601       0.73504787        1 
H       1.21926597       2.10554968       2.02053490        1 
H      -0.01078124      -4.23415349      -0.70488037        1 
H       0.88855159      -3.30904326      -1.94956571        1 
H      -2.51402032      -3.38000398       0.08112093        1 
H      -3.72032687      -2.47600328      -0.88815387        1 
C      -2.02320802       1.35403098      -1.00207379        6 
C       2.77090873       1.32016883      -0.58736934        6 
O       3.70935817       1.16096791       0.46319113        8 
H       2.84685704       2.32741665      -1.02440585        1 
H       2.93195176       0.58262856      -1.37384910        1 
C       5.04030392       1.04029245      -0.00237977        6 
H       5.67799842       0.92397079       0.87439137        1 
H       5.35477905       1.93654333      -0.55620932        1 
H       5.15086632       0.16187472      -0.65065298        1 
O      -3.12639602       1.52988774      -0.12815110        8 
H      -2.13301374       0.43950296      -1.59115826        1 
H      -1.93469537       2.20771743      -1.68955838        1 
C      -4.37266018       1.38221406      -0.77731013        6 
H      -5.14771533       1.53147685      -0.02502959        1 
H      -4.47744460       0.37762036      -1.20945971        1 
H      -4.50193277       2.12595070      -1.57632617        1 
