43
Lattice="0.0 0.0 0.0 0.0 0.0 0.0 0.0 0.0 0.0" Properties=species:S:1:pos:R:3:Z:I:1 pbc="F F F"
C      -0.84590870       0.31853464      -0.65144695        6 
C       0.66396005      -0.05195030      -0.74831824        6 
C      -1.19740159       1.39802276       0.37240855        6 
C       1.66022587       1.08957770      -0.68695182        6 
O      -0.12217148       1.90246981       1.00725693        8 
O      -2.32728261       1.68055297       0.69380572        8 
O       1.18127171       2.13645961      -1.40169498        8 
O       2.78943474       1.04628348      -0.26814469        8 
C       2.05712026       3.26746160      -1.52931143        6 
C      -0.38419572       2.82780372       2.07597682        6 
C      -1.36977935      -1.05692922      -0.08712992        6 
C      -1.02340373      -2.19150758      -1.09967271        6 
C       0.44927383      -2.51660190      -0.73602736        6 
C       0.77598731      -1.31809027       0.17598295        6 
O      -0.42217330      -1.25488687       0.97949762        8 
H      -1.30242569       0.57646384      -1.60483477        1 
H       0.83129114      -0.39745200      -1.77494724        1 
H       2.99426701       2.97754396      -2.00690582        1 
H      -0.97846872       2.34831642       2.85495767        1 
H      -1.68333115      -3.04555142      -0.94860820        1 
H      -1.15447152      -1.86119841      -2.13097267        1 
H       0.52373430      -3.44059209      -0.15981944        1 
H       1.12044780      -2.58883194      -1.59102780        1 
H       1.51816102       3.98391298      -2.14568869        1 
H       2.27217102       3.69424604      -0.54786030        1 
H      -0.91922017       3.70091641       1.69973274        1 
H       0.59424405       3.11035338       2.45823919        1 
C      -2.78377690      -1.15270554       0.44732279        6 
C       1.98388120      -1.48032382       1.07302290        6 
O       3.06290110      -1.91446882       0.26439689        8 
H       1.74495094      -2.23341358       1.83808724        1 
H       2.22217019      -0.53656417       1.57270648        1 
C       4.32830619      -1.69926534       0.86115405        6 
H       5.07716998      -2.08004748       0.16582546        1 
H       4.42070279      -2.23923204       1.81464708        1 
H       4.50127788      -0.62987010       1.02966887        1 
O      -3.65986183      -0.98378107      -0.65335071        8 
H      -2.97331436      -0.40020486       1.21588141        1 
H      -2.91154143      -2.14953573       0.89616746        1 
C      -5.01215329      -0.83975273      -0.26087174        6 
H      -5.60048741      -0.72583414      -1.17170836        1 
H      -5.14585460       0.04792688       0.37049376        1 
H      -5.36762036      -1.72507218       0.28582391        1 
