43
Lattice="0.0 0.0 0.0 0.0 0.0 0.0 0.0 0.0 0.0" Properties=species:S:1:pos:R:3:Z:I:1 pbc="F F F"
C      -0.64449553      -0.03859734       0.84483319        6 
C       0.91498167      -0.18536051       0.85312269        6 
C      -1.46799145      -1.27684403       0.54214267        6 
C       1.47925743      -1.47246201       0.26344822        6 
O      -2.69350613      -1.14381816       1.09524658        8 
O      -1.13957991      -2.25305646      -0.08568807        8 
O       1.34796584      -1.55001305      -1.06962853        8 
O       2.06416608      -2.29451760       0.92849471        8 
C       1.72843487      -2.79786897      -1.66975763        6 
C      -3.62002966      -2.21493969       0.84724980        6 
C      -0.85159514       1.17240511      -0.15411411        6 
C      -0.59696488       2.45826309       0.65993805        6 
C       0.93258996       2.34213892       0.90835303        6 
C       1.30514804       1.09864638       0.05039909        6 
O       0.31223479       1.11565607      -0.98653613        8 
H      -0.98062900       0.28031252       1.83083524        1 
H       1.29911115      -0.14851935       1.86945884        1 
H       1.08183399      -3.59393697      -1.29773440        1 
H      -3.25071428      -3.14813913       1.27548950        1 
H      -0.83888682       3.32890901       0.04755735        1 
H      -1.19629571       2.50645896       1.56800814        1 
H       1.46907822       3.22050100       0.54685218        1 
H       1.19456921       2.20514926       1.95784373        1 
H       1.58379699      -2.66002055      -2.73939252        1 
H       2.76985634      -3.03678594      -1.44796134        1 
H      -3.77141503      -2.35007030      -0.22522391        1 
H      -4.54668085      -1.91178199       1.32959997        1 
C      -2.08459232       1.17551902      -1.03517342        6 
C       2.69494622       1.14180120      -0.55163968        6 
O       3.61457431       1.07868173       0.52529933        8 
H       2.81445488       2.07824831      -1.11629446        1 
H       2.84045054       0.30498806      -1.24234785        1 
C       4.95983109       0.96567426       0.10190887        6 
H       5.57498552       0.91124447       1.00007508        1 
H       5.26809827       1.83651091      -0.49368452        1 
H       5.11338906       0.05580865      -0.49426519        1 
O      -3.19415337       1.57530349      -0.25487540        8 
H      -2.24797199       0.18119132      -1.47534164        1 
H      -1.91450573       1.87995819      -1.86230597        1 
C      -4.42326985       1.45314766      -0.94130562        6 
H      -5.20603329       1.79081011      -0.26184831        1 
H      -4.61944968       0.40961125      -1.22574210        1 
H      -4.44215915       2.07405774      -1.84819238        1 
