43
Lattice="0.0 0.0 0.0 0.0 0.0 0.0 0.0 0.0 0.0" Properties=species:S:1:pos:R:3:Z:I:1 pbc="F F F"
C      -0.86004541       0.11806747      -0.67850577        6 
C       0.70625953       0.16182669      -0.73236547        6 
C      -1.51705721       1.22077560       0.13986083        6 
C       1.31631091       1.50262056      -0.34909378        6 
O      -2.29660302       1.98841832      -0.64779439        8 
O      -1.41407788       1.37346282       1.33177555        8 
O       2.65442865       1.43277344      -0.21870505        8 
O       0.70487734       2.53895199      -0.25872449        8 
C       3.32367032       2.67975442       0.04843091        6 
C      -2.93699140       3.09657192       0.00406491        6 
C      -1.07355070      -1.28263877      -0.01171573        6 
C      -0.68067588      -2.37083017      -1.04526670        6 
C       0.86915422      -2.32972263      -0.96911857        6 
C       1.09469632      -1.16449085       0.02698690        6 
O       0.00139290      -1.33590804       0.93773047        8 
H      -1.28842909       0.15056265      -1.67688887        1 
H       1.02118935       0.04840661      -1.77411105        1 
H       2.96108169       3.11464007       0.98085620        1 
H      -2.18738418       3.75567791       0.44449886        1 
H      -1.07333188      -3.34067670      -0.73520094        1 
H      -1.07668356      -2.15450966      -2.03778261        1 
H       1.27320754      -3.24972720      -0.54387578        1 
H       1.36015788      -2.16198199      -1.92733090        1 
H       4.37943736       2.42910266       0.12393409        1 
H       3.15312802       3.38461218      -0.76650865        1 
H      -3.61295281       2.74451430       0.78563713        1 
H      -3.49234845       3.61193246      -0.77688699        1 
C      -2.38585676      -1.51617731       0.70881700        6 
C       2.39163349      -1.24910067       0.80447067        6 
O       3.45522358      -1.39377706      -0.11895716        8 
H       2.32989858      -2.12771118       1.46304312        1 
H       2.53336153      -0.36293053       1.43185974        1 
C       4.72499121      -1.23980209       0.47912000        6 
H       5.46987433      -1.36417503      -0.30738372        1 
H       4.89908754      -1.99459298       1.25946873        1 
H       4.83426856      -0.24151963       0.92493257        1 
O      -3.42856003      -1.32438154      -0.23343453        8 
H      -2.47957820      -0.82172675       1.55037320        1 
H      -2.39960668      -2.54276630       1.10281687        1 
C      -4.71675794      -1.46396047       0.33379823        6 
H      -5.43971676      -1.28974569      -0.46337293        1 
H      -4.88086799      -0.73182853       1.13618198        1 
H      -4.86808700      -2.47334714       0.74178317        1 
