43
Lattice="0.0 0.0 0.0 0.0 0.0 0.0 0.0 0.0 0.0" Properties=species:S:1:pos:R:3:Z:I:1 pbc="F F F"
C      -0.81321059       0.17637248      -0.71192920        6 
C       0.73769020      -0.09382136      -0.73717415        6 
C      -1.34241331       1.38349184       0.04608667        6 
C       1.63396844       1.08187881      -0.38051480        6 
O      -0.44211309       1.93268604       0.87296211        8 
O      -2.48755210       1.76339371      -0.03127194        8 
O       1.56741385       1.98617448      -1.38958957        8 
O       2.32180074       1.23929554       0.59435260        8 
C       2.30984089       3.20090407      -1.19567547        6 
C      -0.88491960       3.03580450       1.68107237        6 
C      -1.30133612      -1.15592876      -0.02735876        6 
C      -1.03938149      -2.33175290      -1.00792132        6 
C       0.47963908      -2.57229297      -0.81411887        6 
C       0.85097686      -1.40004378       0.12199838        6 
O      -0.30132752      -1.33569662       0.98487741        8 
H      -1.22519736       0.25735807      -1.71644021        1 
H       1.01078868      -0.32462206      -1.76777427        1 
H       3.37142554       2.98599037      -1.06546020        1 
H      -1.70339482       2.72426518       2.33154235        1 
H      -1.62869771      -3.19964529      -0.70994448        1 
H      -1.32342447      -2.07986246      -2.02948272        1 
H       0.67182710      -3.51716902      -0.30202506        1 
H       1.05576845      -2.56586116      -1.73907230        1 
H       2.14604076       3.78951942      -2.09595464        1 
H       1.94124262       3.73386058      -0.31725297        1 
H      -1.22101711       3.85990279       1.04973454        1 
H      -0.01624173       3.32454633       2.26825664        1 
C      -2.68282911      -1.17530549       0.59398480        6 
C       2.09899178      -1.61636705       0.94998304        6 
O       3.19017376      -1.68276969       0.04334876        8 
H       1.99818436      -2.56031916       1.50531413        1 
H       2.22880739      -0.79563684       1.65786763        1 
C       4.44666766      -1.54804914       0.68183882        6 
H       5.20996953      -1.62291875      -0.09347711        1 
H       4.60908724      -2.34615359       1.41994040        1 
H       4.52857253      -0.57454902       1.18105631        1 
O      -3.62047560      -1.15735509      -0.46603396        8 
H      -2.83243887      -0.32146407       1.26319505        1 
H      -2.78197353      -2.09478725       1.18960949        1 
C      -4.92719051      -0.80288367      -0.05137708        6 
H      -5.56003610      -0.82658796      -0.93874557        1 
H      -4.94031362       0.20764876       0.37473584        1 
H      -5.32196199      -1.51504835       0.68751381        1 
