43
Lattice="0.0 0.0 0.0 0.0 0.0 0.0 0.0 0.0 0.0" Properties=species:S:1:pos:R:3:Z:I:1 pbc="F F F"
C      -0.96564893       0.36433109      -0.73940404        6 
C       0.53779445       0.00591165      -0.84903238        6 
C      -1.31762619       1.50822456       0.20829893        6 
C       1.47340894       1.19170588      -0.99923430        6 
O      -0.28450072       1.92193069       0.96065428        8 
O      -2.45039471       1.89361179       0.38584670        8 
O       2.75855872       0.85939727      -0.77461206        8 
O       1.12715617       2.28938840      -1.36106458        8 
C       3.72687898       1.89768059      -1.00854480        6 
C      -0.57954394       2.92302165       1.94765078        6 
C      -1.45759899      -0.96526543      -0.05402460        6 
C      -1.10259731      -2.18830443      -0.95526402        6 
C       0.38238017      -2.45341927      -0.58034125        6 
C       0.69585854      -1.16497026       0.20411386        6 
O      -0.49507079      -1.05369397       1.01281880        8 
H      -1.45310390       0.54522632      -1.69508896        1 
H       0.67135043      -0.46241710      -1.83190871        1 
H       3.54058224       2.74951300      -0.35262936        1 
H      -1.29615339       2.54028066       2.67630667        1 
H      -1.74494338      -3.03378265      -0.70906255        1 
H      -1.25085337      -1.96672121      -2.01312022        1 
H       0.47901798      -3.31562290       0.08183301        1 
H       1.04203923      -2.60028392      -1.43532610        1 
H       4.69182330       1.44593826      -0.78878253        1 
H       3.68673882       2.23046804      -2.04682368        1 
H      -0.98813084       3.81589201       1.47265332        1 
H       0.37119869       3.14661457       2.42683357        1 
C      -2.86567424      -1.01790168       0.50030537        6 
C       1.89737912      -1.21041712       1.12416124        6 
O       2.98066152      -1.79812684       0.42740658        8 
H       1.62843662      -1.81814006       2.00016309        1 
H       2.15285761      -0.20270578       1.47178073        1 
C       4.21180969      -1.65191554       1.10196704        6 
H       4.97557739      -2.12713469       0.48558785        1 
H       4.19481271      -2.13849778       2.08800745        1 
H       4.46652168      -0.59147739       1.23772223        1 
O      -3.74949470      -0.98892748      -0.60659973        8 
H      -3.06088193      -0.17989831       1.17427905        1 
H      -2.98060674      -1.95421448       1.06718992        1 
C      -5.09510783      -0.75686889      -0.23228894        6 
H      -5.68526308      -0.75025276      -1.14899846        1 
H      -5.20053287       0.21114998       0.27355560        1 
H      -5.47092896      -1.55122047       0.42866445        1 
