43
Lattice="0.0 0.0 0.0 0.0 0.0 0.0 0.0 0.0 0.0" Properties=species:S:1:pos:R:3:Z:I:1 pbc="F F F"
C      -0.79617471      -0.06805518       0.82088263        6 
C       0.77737005       0.01501238       0.77800456        6 
C      -1.29150845      -1.45734145       0.44207375        6 
C       1.44859426      -1.18177945       0.13582059        6 
O      -2.08400504      -1.51561734      -0.63393455        8 
O      -0.96473987      -2.43110338       1.08066401        8 
O       2.42550933      -1.66853116       0.92068992        8 
O       1.16472553      -1.64701404      -0.94308108        8 
C       3.12422672      -2.81851740       0.41208579        6 
C      -2.49214256      -2.83434570      -1.04457876        6 
C      -1.19406275       1.21267532       0.02703635        6 
C      -0.88319927       2.42665212       0.95037885        6 
C       0.66250761       2.52127910       0.84253531        6 
C       0.96999039       1.32051361      -0.08014665        6 
O      -0.15883407       1.30393707      -0.96346457        8 
H      -1.11793691       0.03394956       1.85851028        1 
H       1.19782600       0.14461743       1.77095410        1 
H       3.63414137      -2.57406968      -0.52149397        1 
H      -3.08528607      -3.31122123      -0.26298773        1 
H      -1.36637918       3.32189591       0.55567271        1 
H      -1.24493855       2.27382297       1.96751239        1 
H       0.97271477       3.44666798       0.35342798        1 
H       1.18246913       2.45525194       1.79785059        1 
H       3.84441478      -3.08348442       1.18293712        1 
H       2.42629044      -3.63851891       0.23767355        1 
H      -1.61583369      -3.44519626      -1.26287576        1 
H      -3.08853639      -2.68378807      -1.94204258        1 
C      -2.55191508       1.27574228      -0.64262553        6 
C       2.23643490       1.42337686      -0.90391514        6 
O       3.33546192       1.38432552      -0.01062571        8 
H       2.22095444       2.36677184      -1.46850984        1 
H       2.28148523       0.59616272      -1.62325546        1 
C       4.58555236       1.34658066      -0.67073982        6 
H       5.35453674       1.29842510       0.10038422        1 
H       4.74484829       2.24571180      -1.28246008        1 
H       4.66770415       0.46212503      -1.31774701        1 
O      -3.52809375       1.03965526       0.35935622        8 
H      -2.61665245       0.53090539      -1.43842068        1 
H      -2.68485924       2.27470849      -1.08335979        1 
C      -4.83628180       0.92537735      -0.16415342        6 
H      -5.50755026       0.75322324       0.67761246        1 
H      -4.91091547       0.08163102      -0.86365025        1 
H      -5.14325905       1.84364758      -0.68456250        1 
