43
Lattice="0.0 0.0 0.0 0.0 0.0 0.0 0.0 0.0 0.0" Properties=species:S:1:pos:R:3:Z:I:1 pbc="F F F"
C      -0.76448531      -0.05090276       0.80145385        6 
C       0.80845597       0.04459778       0.88658142        6 
C      -1.29857967      -1.37448365       0.25611838        6 
C       1.58078749      -1.25741019       0.72835989        6 
O      -2.57537896      -1.28067334      -0.16368273        8 
O      -0.71346371      -2.42814184       0.29755118        8 
O       1.82866068      -1.58141899      -0.55496069        8 
O       1.92912409      -1.92747036       1.66794280        8 
C       2.41919302      -2.87436431      -0.76518230        6 
C      -3.19696992      -2.51392974      -0.57080382        6 
C      -1.06560472       1.25532320      -0.01457390        6 
C      -0.68694785       2.46970148       0.88735691        6 
C       0.85145471       2.52883497       0.71715263        6 
C       1.10562575       1.23778115      -0.08966739        6 
O      -0.01414942       1.22702841      -0.99226655        8 
H      -1.20301064       0.02225138       1.79926408        1 
H       1.07122201       0.34950243       1.89819665        1 
H       1.74649498      -3.64916930      -0.39495906        1 
H      -3.18664239      -3.23534237       0.24723452        1 
H      -1.17207034       3.37390111       0.51805320        1 
H      -1.00899838       2.32479015       1.91896611        1 
H       1.15367927       3.39329917       0.12235565        1 
H       1.40536222       2.55171407       1.65527013        1 
H       2.55126453      -2.96227643      -1.84205037        1 
H       3.37916956      -2.94809042      -0.25162226        1 
H      -2.67701912      -2.93883672      -1.43080526        1 
H      -4.21864889      -2.24761720      -0.83365737        1 
C      -2.39182906       1.44236852      -0.72402764        6 
C       2.39646772       1.20979281      -0.88165466        6 
O       3.45371913       1.01643038       0.04369517        8 
H       2.51701915       2.16325768      -1.41600667        1 
H       2.36458564       0.39758666      -1.61260523        1 
C       4.69180724       0.73910648      -0.58113539        6 
H       5.42592696       0.59199000       0.21119165        1 
H       5.01587923       1.57165158      -1.22126725        1 
H       4.62995566      -0.17290204      -1.19052251        1 
O      -3.40336997       1.52981761       0.26345518        8 
H      -2.58813497       0.62184942      -1.41791890        1 
H      -2.33428576       2.37737313      -1.30102026        1 
C      -4.70671221       1.49718911      -0.28015665        6 
H      -5.40627793       1.56929361       0.55304393        1 
H      -4.88614091       0.55798959      -0.82145093        1 
H      -4.87934298       2.33862425      -0.96644404        1 
