43
Lattice="0.0 0.0 0.0 0.0 0.0 0.0 0.0 0.0 0.0" Properties=species:S:1:pos:R:3:Z:I:1 pbc="F F F"
C      -0.91528786       0.13759692      -0.67137459        6 
C       0.65536539       0.10885914      -0.70934086        6 
C      -1.52691293       1.32344690       0.06441651        6 
C       1.38000042       1.28054219      -0.07532985        6 
O      -1.60277056       2.37523295      -0.78476131        8 
O      -1.89092665       1.36962816       1.20954932        8 
O       2.60054298       1.42209791      -0.63865177        8 
O       0.97700961       2.00001759       0.80366469        8 
C       3.42551990       2.46779149      -0.09689184        6 
C      -2.05094923       3.61064526      -0.19992506        6 
C      -1.21692901      -1.24873420      -0.02428983        6 
C      -0.87985826      -2.34549145      -1.07130326        6 
C       0.66981186      -2.38924099      -1.00134126        6 
C       0.95102197      -1.26289447       0.01836014        6 
O      -0.14650723      -1.38022048       0.92816240        8 
H      -1.30014346       0.18160404      -1.68905241        1 
H       1.00918520       0.04994758      -1.73663438        1 
H       3.58843261       2.31358104       0.97129495        1 
H      -1.38873388       3.89667711       0.61834736        1 
H      -1.32093966      -3.29580214      -0.76665143        1 
H      -1.26802169      -2.10098807      -2.06035956        1 
H       1.02726313      -3.33983624      -0.60161201        1 
H       1.16698357      -2.21983059      -1.95569430        1 
H       4.36512676       2.40610878      -0.64141923        1 
H       2.95689254       3.44172043      -0.24769779        1 
H      -3.06971812       3.50707329       0.17733563        1 
H      -2.01444650       4.34357524      -1.00330960        1 
C      -2.55055535      -1.42707776       0.67288564        6 
C       2.25038426      -1.39164122       0.78623130        6 
O       3.30249246      -1.54136616      -0.14836093        8 
H       2.18026551      -2.27124949       1.44196012        1 
H       2.41118034      -0.51285622       1.42573652        1 
C       4.58281993      -1.40521079       0.43343714        6 
H       5.31446125      -1.54605741      -0.36234643        1 
H       4.75428439      -2.15793467       1.21582305        1 
H       4.71510763      -0.40561419       0.87063415        1 
O      -3.55979694      -1.12353032      -0.27976853        8 
H      -2.61297906      -0.76027289       1.53551968        1 
H      -2.64098024      -2.46857502       1.01419318        1 
C      -4.86234675      -1.15917016       0.27236351        6 
H      -5.55889683      -0.90919331      -0.52845217        1 
H      -4.96860421      -0.42963548       1.08602314        1 
H      -5.10517049      -2.15896300       0.65926736        1 
