43
Lattice="0.0 0.0 0.0 0.0 0.0 0.0 0.0 0.0 0.0" Properties=species:S:1:pos:R:3:Z:I:1 pbc="F F F"
C      -0.70173454       0.28399481      -0.62988399        6 
C       0.84463248      -0.00889009      -0.66674312        6 
C      -1.04116032       1.45614531       0.30066787        6 
C       1.76356437       1.17581033      -0.41565883        6 
O      -2.21884531       1.32397356       0.93217822        8 
O      -0.37819774       2.46183700       0.38858005        8 
O       1.66071000       2.02834738      -1.45958132        8 
O       2.58729880       1.29578242       0.45618838        8 
C       2.38731325       3.26056566      -1.33525893        6 
C      -2.62816991       2.43668279       1.75013741        6 
C      -1.18696183      -1.12512637      -0.15876681        6 
C      -0.75059679      -2.17730205      -1.22935758        6 
C       0.71369694      -2.47295543      -0.82018988        6 
C       0.95457784      -1.32603020       0.17959514        6 
O      -0.27626364      -1.35324776       0.93392196        8 
H      -1.08869057       0.55186004      -1.61411276        1 
H       1.08490841      -0.26321619      -1.70100017        1 
H       3.45128911       3.06898314      -1.18956372        1 
H      -2.73732193       3.33577694       1.14234351        1 
H      -1.38174685      -3.06367538      -1.16653520        1 
H      -0.84687868      -1.78338023      -2.24230460        1 
H       0.79739271      -3.42768937      -0.29714029        1 
H       1.42254672      -2.47004772      -1.64776431        1 
H       2.21808710       3.79402029      -2.26850544        1 
H       1.99708719       3.83303849      -0.49221159        1 
H      -1.89635476       2.61959497       2.53766202        1 
H      -3.58523945       2.14213798       2.17550295        1 
C      -2.61432942      -1.34610949       0.30688262        6 
C       2.13298065      -1.50677731       1.10970563        6 
O       3.28575078      -1.65067127       0.29546536        8 
H       1.96858316      -2.41062747       1.71492005        1 
H       2.23049020      -0.64549978       1.77477778        1 
C       4.49436878      -1.43211803       1.00061809        6 
H       5.30783942      -1.55912159       0.28547330        1 
H       4.62031533      -2.15882070       1.81592994        1 
H       4.52630145      -0.41598246       1.41106945        1 
O      -3.46984705      -0.98502831      -0.76489473        8 
H      -2.83766278      -0.76388174       1.20154113        1 
H      -2.73212473      -2.41301569       0.54828571        1 
C      -4.83930519      -1.11575157      -0.44057241        6 
H      -5.40992607      -0.81834949      -1.32073079        1 
H      -5.11295681      -0.46618398       0.40253071        1 
H      -5.09376862      -2.15353313      -0.18217337        1 
