43
Lattice="0.0 0.0 0.0 0.0 0.0 0.0 0.0 0.0 0.0" Properties=species:S:1:pos:R:3:Z:I:1 pbc="F F F"
C      -0.69747262      -0.05572470      -0.68956504        6 
C       0.87526450       0.08795780      -0.60881058        6 
C      -1.45630200       1.14042195      -0.15537080        6 
C       1.32211748       1.24134918       0.27973728        6 
O      -1.80006541       1.96096336      -1.16897701        8 
O      -1.75627724       1.34741219       0.99608455        8 
O       1.09017656       2.41260424      -0.35943421        8 
O       1.80176319       1.18190875       1.38178443        8 
C       1.36893220       3.60509323       0.39630000        6 
C      -2.47508226       3.17252202      -0.79489417        6 
C      -0.91795817      -1.42983180       0.03492445        6 
C      -0.62785300      -2.52089049      -1.01885373        6 
C       0.90479167      -2.35343731      -1.19627268        6 
C       1.24661003      -1.32478298      -0.07795789        6 
O       0.21941823      -1.54989140       0.90171509        8 
H      -0.98551432      -0.14400023      -1.73523193        1 
H       1.29001302       0.27217357      -1.59866347        1 
H       2.42524330       3.65036011       0.66518328        1 
H      -1.84633481       3.76649504      -0.12918277        1 
H      -0.87258540      -3.49781964      -0.59709080        1 
H      -1.20361628      -2.39071474      -1.93510488        1 
H       1.43890112      -3.28850778      -1.02275444        1 
H       1.19079806      -1.98811248      -2.18367867        1 
H       1.10626662       4.43189278      -0.26027512        1 
H       0.76495352       3.62303993       1.30485504        1 
H      -3.41759924       2.94823318      -0.29290291        1 
H      -2.65469019       3.70460640      -1.72659021        1 
C      -2.19315479      -1.59406638       0.83284927        6 
C       2.61530026      -1.50452084       0.54861907        6 
O       3.57006271      -1.04902860      -0.40033836        8 
H       2.77143937      -2.56974126       0.77253745        1 
H       2.68345481      -0.93269566       1.47641130        1 
C       4.89057115      -1.05066177       0.10876799        6 
H       5.54155150      -0.67580859      -0.68164706        1 
H       5.21215459      -2.06446606       0.38641154        1 
H       4.97619221      -0.39922710       0.98866486        1 
O      -3.27549671      -1.34392542      -0.05271916        8 
H      -2.20226898      -0.88678392       1.66684808        1 
H      -2.24449090      -2.61754279       1.23055122        1 
C      -4.52623140      -1.29761459       0.60833065        6 
H      -5.28295307      -1.09231997      -0.14946100        1 
H      -4.54433758      -0.50219391       1.36515846        1 
H      -4.75802319      -2.25541098       1.09489148        1 
