43
Lattice="0.0 0.0 0.0 0.0 0.0 0.0 0.0 0.0 0.0" Properties=species:S:1:pos:R:3:Z:I:1 pbc="F F F"
C      -0.85197448       0.20371508      -0.62173942        6 
C       0.69996449      -0.08515432      -0.68357870        6 
C      -1.34743207       1.42847149       0.14667119        6 
C       1.64862083       1.02070490      -0.24996921        6 
O      -0.42115534       2.39688510       0.23599871        8 
O      -2.47523349       1.57355754       0.55263027        8 
O       1.93545388       1.80124723      -1.31670499        8 
O       2.15924380       1.17064428       0.83195922        8 
C       2.80644889       2.91296548      -1.06366258        6 
C      -0.81617215       3.60477977       0.91074894        6 
C      -1.35325866      -1.16685113      -0.05175039        6 
C      -1.08000352      -2.25829997      -1.12865776        6 
C       0.42557799      -2.55162489      -0.91513106        6 
C       0.79578670      -1.44656739       0.09618990        6 
O      -0.35923703      -1.42929279       0.95306740        8 
H      -1.24525921       0.35284099      -1.63020319        1 
H       0.95702828      -0.26069132      -1.72720812        1 
H       3.77416824       2.56727607      -0.69667436        1 
H      -1.10184048       3.38661720       1.94036005        1 
H      -1.69831364      -3.13582117      -0.93812379        1 
H      -1.31959460      -1.90251736      -2.13124704        1 
H       0.57920057      -3.52847322      -0.45207521        1 
H       1.02671734      -2.50678816      -1.82302727        1 
H       2.91868662       3.42009633      -2.01970950        1 
H       2.36241907       3.58302604      -0.32519884        1 
H      -1.65439972       4.07289953       0.39285199        1 
H       0.06054383       4.24766182       0.88693266        1 
C      -2.73722054      -1.26376068       0.55727784        6 
C       2.04051811      -1.71291747       0.91521275        6 
O       3.14371834      -1.66010510       0.02237395        8 
H       1.96067042      -2.70855477       1.37485545        1 
H       2.13816375      -0.96232222       1.70270344        1 
C       4.39121726      -1.61028755       0.68941524        6 
H       5.16417729      -1.56834020      -0.07871451        1 
H       4.55119872      -2.50436581       1.30839987        1 
H       4.46070724      -0.71832812       1.32501868        1 
O      -3.67135110      -1.06820091      -0.49001411        8 
H      -2.87173405      -0.52487140       1.34952375        1 
H      -2.84795882      -2.26858985       0.99204751        1 
C      -4.98440893      -0.82653280      -0.02005858        6 
H      -5.62124883      -0.70404292      -0.89672180        1 
H      -5.02068028       0.08740152       0.58527986        1 
H      -5.35917825      -1.67039164       0.57706135        1 
