43
Lattice="0.0 0.0 0.0 0.0 0.0 0.0 0.0 0.0 0.0" Properties=species:S:1:pos:R:3:Z:I:1 pbc="F F F"
C      -0.76939810       0.08361561       0.89893674        6 
C       0.80375398       0.04021752       0.87740547        6 
C      -1.60284545      -1.17584167       0.73820048        6 
C       1.47722134      -1.25250550       0.43701554        6 
O      -1.01176291      -2.16009271       0.04006629        8 
O      -2.72535220      -1.26865135       1.17599507        8 
O       1.44658681      -1.45845258      -0.89147310        8 
O       2.06873178      -1.97574613       1.20349038        8 
C       2.04789294      -2.67732948      -1.34937401        6 
C      -1.78046698      -3.36339094      -0.13851242        6 
C      -1.07369552       1.19727217      -0.18817561        6 
C      -0.87082988       2.56007896       0.50701262        6 
C       0.66794765       2.55419151       0.70640392        6 
C       1.08826543       1.26536627      -0.05576710        6 
O       0.06486118       1.12916741      -1.05384034        8 
H      -1.09505454       0.46453201       1.86596452        1 
H       1.19086218       0.21561300       1.87833607        1 
H       1.56176454      -3.53740362      -0.88529977        1 
H      -2.72394195      -3.14294871      -0.63977307        1 
H      -1.18483906       3.36064989      -0.16517126        1 
H      -1.44304441       2.64904501       1.42932804        1 
H       1.13805237       3.42725573       0.25138229        1 
H       0.97191614       2.52362855       1.75307179        1 
H       1.89779800      -2.68816800      -2.42714516        1 
H       3.11229605      -2.69991573      -1.10838965        1 
H      -1.98619722      -3.82916662       0.82615595        1 
H      -1.16111135      -4.01216925      -0.75381658        1 
C      -2.34312134       1.05953128      -1.00320216        6 
C       2.45179988       1.34479191      -0.71429156        6 
O       3.41603914       1.30953748       0.32461677        8 
H       2.52330288       2.28275761      -1.28396400        1 
H       2.59140375       0.50990899      -1.40721644        1 
C       4.74697954       1.26874357      -0.15265339        6 
H       5.39901776       1.21659002       0.71917873        1 
H       4.99318819       2.16827900      -0.73413416        1 
H       4.91627836       0.38374519      -0.78157133        1 
O      -3.42732687       1.45215214      -0.18654361        8 
H      -2.46556501       0.02627614      -1.35509606        1 
H      -2.26283102       1.70585313      -1.88932372        1 
C      -4.68477350       1.02985576      -0.67898382        6 
H      -5.43987627       1.40782382       0.01016717        1 
H      -4.74608595      -0.06550478      -0.71031013        1 
H      -4.88010260       1.43321619      -1.68278062        1 
