43
Lattice="0.0 0.0 0.0 0.0 0.0 0.0 0.0 0.0 0.0" Properties=species:S:1:pos:R:3:Z:I:1 pbc="F F F"
C      -0.82659740       0.23673902      -0.69118205        6 
C       0.70096562      -0.06922434      -0.76174514        6 
C      -1.24448696       1.36748818       0.23854784        6 
C       1.62540454       1.12556172      -0.61684783        6 
O      -0.25356857       1.78268705       1.04983681        8 
O      -2.37812323       1.77654667       0.32708544        8 
O       1.13136253       2.15340166      -1.35049524        8 
O       2.70952486       1.15729351      -0.09328083        8 
C       1.91773575       3.35527472      -1.36520185        6 
C      -0.59405454       2.78721496       2.01968639        6 
C      -1.31272356      -1.12286794      -0.06661541        6 
C      -0.98063382      -2.27504664      -1.05988716        6 
C       0.51618501      -2.54361743      -0.75233333        6 
C       0.84055376      -1.33787863       0.15423302        6 
O      -0.34205190      -1.29060362       0.98020654        8 
H      -1.28448368       0.42073257      -1.66044232        1 
H       0.91642991      -0.38560702      -1.78769547        1 
H       2.92001357       3.15660238      -1.74736037        1 
H      -1.35324653       2.41060435       2.70666658        1 
H      -1.60548921      -3.14375912      -0.85184615        1 
H      -1.16744552      -1.97958759      -2.09283260        1 
H       0.64705841      -3.46648593      -0.18415375        1 
H       1.15492190      -2.59066120      -1.63358427        1 
H       1.38622060       4.04197536      -2.02059117        1 
H       1.99245575       3.76951902      -0.35791786        1 
H      -0.97008687       3.68321849       1.52334766        1 
H       0.33101511       2.99966575       2.55104493        1 
C      -2.71471624      -1.19045468       0.50144477        6 
C       2.06701245      -1.49001677       1.02661278        6 
O       3.15383854      -1.81179854       0.17583068        8 
H       1.88338673      -2.30217363       1.74495993        1 
H       2.26067157      -0.56757057       1.58126442        1 
C       4.41566296      -1.59195231       0.77853052        6 
H       5.17232861      -1.88407120       0.04950115        1 
H       4.54048732      -2.20266700       1.68447365        1 
H       4.54605125      -0.53342999       1.03239799        1 
O      -3.61234772      -1.10454318      -0.59030915        8 
H      -2.89386025      -0.38195220       1.21666578        1 
H      -2.83081372      -2.14871255       1.02965979        1 
C      -4.94892858      -0.86240394      -0.19091960        6 
H      -5.55069536      -0.81810246      -1.09892779        1 
H      -5.03105987       0.09180317       0.34448281        1 
H      -5.32936137      -1.67017024       0.45068275        1 
