43
Lattice="0.0 0.0 0.0 0.0 0.0 0.0 0.0 0.0 0.0" Properties=species:S:1:pos:R:3:Z:I:1 pbc="F F F"
C      -0.79092640       0.10534170      -0.67920990        6 
C       0.74374272       0.34580773      -0.60293031        6 
C      -1.74171102       1.28909551      -0.66116010        6 
C       1.08987737       1.32372880       0.53425406        6 
O      -1.16489274       2.36253322      -1.23983314        8 
O      -2.93073434       1.21821925      -0.46163989        8 
O       2.38005501       1.22524713       0.91609043        8 
O       0.37382900       2.20180884       0.94670438        8 
C       2.82100689       2.18123560       1.89710036        6 
C      -2.01162401       3.50588291      -1.43470134        6 
C      -0.99832072      -1.18152665       0.19832787        6 
C      -0.86110800      -2.36017422      -0.78100885        6 
C       0.60070984      -2.14033969      -1.25503270        6 
C       1.14573996      -1.12326701      -0.20096837        6 
O       0.25152068      -1.29233560       0.92036168        8 
H      -0.97865505      -0.21083344      -1.71323438        1 
H       1.19054346       0.70136634      -1.53013766        1 
H       2.24413212       2.07867428       2.81741741        1 
H      -2.37824352       3.87248495      -0.47459319        1 
H      -0.96988515      -3.30072223      -0.23781331        1 
H      -1.60167053      -2.33706537      -1.58015578        1 
H       1.18393510      -3.06069149      -1.22568801        1 
H       0.67234608      -1.74514518      -2.26985676        1 
H       3.86938084       1.94969632       2.07384602        1 
H       2.71042001       3.19723996       1.51558793        1 
H      -2.86020695       3.25441097      -2.07352379        1 
H      -1.38112051       4.25451067      -1.90964882        1 
C      -2.15802610      -1.23893514       1.17203390        6 
C       2.56560474      -1.45523033       0.21904671        6 
O       3.41002418      -1.15909080      -0.88018103        8 
H       2.60643079      -2.52868965       0.45693867        1 
H       2.86533227      -0.89538452       1.10524932        1 
C       4.77647257      -1.38428033      -0.59716991        6 
H       5.33873375      -1.12743695      -1.49521846        1 
H       4.96658095      -2.43696060      -0.34369571        1 
H       5.11917921      -0.75416174       0.23530957        1 
O      -3.30823934      -1.65687284       0.46058826        8 
H      -2.31621055      -0.26028014       1.63767570        1 
H      -1.90724050      -1.96210762       1.96149080        1 
C      -4.52248724      -1.28018375       1.08284284        6 
H      -5.33013135      -1.65637035       0.45419956        1 
H      -4.59941066      -0.18916499       1.15456286        1 
H      -4.61627604      -1.72204111       2.08549556        1 
