43
Lattice="0.0 0.0 0.0 0.0 0.0 0.0 0.0 0.0 0.0" Properties=species:S:1:pos:R:3:Z:I:1 pbc="F F F"
C      -0.84663667      -0.02560467      -0.66499327        6 
C       0.70859735       0.24208139      -0.63522914        6 
C      -1.73748031       1.15216241      -0.30269898        6 
C       1.08625344       1.48250551       0.17974582        6 
O      -1.87190615       1.94763681      -1.38420169        8 
O      -2.34327553       1.32132603       0.72637343        8 
O       2.25755515       1.37828262       0.82760492        8 
O       0.44481331       2.50572767       0.17357752        8 
C       2.69468341       2.55545830       1.53405845        6 
C      -2.59430914       3.17142086      -1.17444524        6 
C      -0.96302147      -1.35810994       0.15585854        6 
C      -0.68961714      -2.49279256      -0.85091600        6 
C       0.79563017      -2.21691638      -1.18933533        6 
C       1.18485234      -1.15183993      -0.11495218        6 
O       0.24204596      -1.38107292       0.94689798        8 
H      -1.11673240      -0.23704063      -1.69946438        1 
H       1.08841831       0.43967804      -1.63966137        1 
H       1.95555469       2.84815803       2.28055491        1 
H      -2.07695810       3.78113605      -0.43218968        1 
H      -0.81319112      -3.45459398      -0.34894794        1 
H      -1.35948027      -2.46516460      -1.70980933        1 
H       1.41409051      -3.10796502      -1.07963915        1 
H       0.94696725      -1.84057086      -2.20208724        1 
H       3.63133996       2.27248585       2.00951332        1 
H       2.85037728       3.38002429       0.83712735        1 
H      -3.61145922       2.96613912      -0.83690129        1 
H      -2.60528532       3.67162294      -2.14060374        1 
C      -2.16796186      -1.55724968       1.04840005        6 
C       2.59612519      -1.34315884       0.40580383        6 
O       3.48473608      -1.01088194      -0.64790417        8 
H       2.71604459      -2.39859385       0.69149824        1 
H       2.77839426      -0.72382360       1.28543073        1 
C       4.84049037      -1.02949183      -0.24975698        6 
H       5.43805492      -0.77165493      -1.12458310        1 
H       5.14154078      -2.02405701       0.10903122        1 
H       5.03035411      -0.29540344       0.54543755        1 
O      -3.30974921      -1.58303509       0.20534901        8 
H      -2.23750641      -0.74444958       1.77468295        1 
H      -2.05920615      -2.51157057       1.58448108        1 
C      -4.52359695      -1.41358229       0.91489671        6 
H      -5.33110106      -1.46086850       0.18353063        1 
H      -4.54711666      -0.44094410       1.42159998        1 
H      -4.66818921      -2.21088142       1.65766913        1 
