43
Lattice="0.0 0.0 0.0 0.0 0.0 0.0 0.0 0.0 0.0" Properties=species:S:1:pos:R:3:Z:I:1 pbc="F F F"
C      -0.75772591       0.20554513       0.92867131        6 
C       0.82188381       0.08888425       0.87399845        6 
C      -1.48417343      -1.12311971       0.87257851        6 
C       1.29033959      -1.30491565       0.47508864        6 
O      -1.66308707      -1.57118426      -0.39064142        8 
O      -1.76969547      -1.76782774       1.84809858        8 
O       1.70395023      -1.41579862      -0.80010370        8 
O       1.23612743      -2.24505566       1.23032701        8 
C       2.08308086      -2.73644044      -1.22550184        6 
C      -2.24915007      -2.87951526      -0.51049321        6 
C      -1.02489870       1.30722764      -0.15528153        6 
C      -0.75381553       2.66046529       0.53879811        6 
C       0.78552466       2.59130305       0.71827795        6 
C       1.14457423       1.29076943      -0.06082603        6 
O       0.09926362       1.20314416      -1.04445408        8 
H      -1.03250147       0.59599378       1.90689301        1 
H       1.23144586       0.24220230       1.87058377        1 
H       1.23481454      -3.41835533      -1.14940582        1 
H      -3.25037703      -2.89045855      -0.07625196        1 
H      -1.03900318       3.47473446      -0.13040337        1 
H      -1.30602654       2.77567386       1.47172872        1 
H       1.28389939       3.44908010       0.26453472        1 
H       1.09907878       2.53976164       1.76165672        1 
H       2.39223764      -2.62741947      -2.26298022        1 
H       2.90313220      -3.11656202      -0.61474477        1 
H      -1.63021627      -3.61949651      -0.00109717        1 
H      -2.29384378      -3.08054193      -1.57910782        1 
C      -2.31306771       1.21481827      -0.94678379        6 
C       2.50242233       1.31669435      -0.73835849        6 
O       3.47470828       1.04503217       0.25902363        8 
H       2.67152999       2.30875771      -1.18124519        1 
H       2.53700818       0.56829559      -1.53350994        1 
C       4.78666040       0.94724256      -0.26006057        6 
H       5.45076001       0.73867367       0.57896274        1 
H       5.09960751       1.88443791      -0.74107193        1 
H       4.86405871       0.13188024      -0.99253575        1 
O      -3.37317969       1.08522780      -0.01316615        8 
H      -2.27421492       0.34975652      -1.61548860        1 
H      -2.43729571       2.12432569      -1.55203111        1 
C      -4.63129288       0.88690255      -0.62845855        6 
H      -5.36693109       0.78390810       0.16931844        1 
H      -4.63449956      -0.02431164      -1.24249379        1 
H      -4.90649524       1.74041184      -1.26359197        1 
