43
Lattice="0.0 0.0 0.0 0.0 0.0 0.0 0.0 0.0 0.0" Properties=species:S:1:pos:R:3:Z:I:1 pbc="F F F"
C      -0.91678687       0.12743405      -0.68046933        6 
C       0.65433092       0.08287527      -0.70491609        6 
C      -1.50091738       1.35253951       0.00975306        6 
C       1.36470906       1.22274810      -0.00501259        6 
O      -1.35740688       2.42092126      -0.81164745        8 
O      -2.01560203       1.41998435       1.09414697        8 
O       2.50444254       1.53542835      -0.65768433        8 
O       1.00717564       1.78101114       1.00311705        8 
C       3.30770265       2.56706360      -0.05864172        6 
C      -1.74831454       3.68848464      -0.25417119        6 
C      -1.24849929      -1.24747487      -0.02647403        6 
C      -0.94136663      -2.35144438      -1.07408383        6 
C       0.60886472      -2.40982568      -1.03209568        6 
C       0.91956868      -1.30389503       0.00260305        6 
O      -0.17465075      -1.40618845       0.91817455        8 
H      -1.28642311       0.16363775      -1.70499640        1 
H       1.02663369       0.05195758      -1.72594182        1 
H       3.63667130       2.26612971       0.93776394        1 
H      -1.15011048       3.90484715       0.63235437        1 
H      -1.38475613      -3.29527328      -0.75292751        1 
H      -1.34724038      -2.11042752      -2.05678810        1 
H       0.96501955      -3.37162557      -0.65850991        1 
H       1.08969169      -2.22568171      -1.99214223        1 
H       4.16114525       2.69141293      -0.72144979        1 
H       2.74138679       3.49641663       0.01900471        1 
H      -2.80557682       3.67839601       0.01477834        1 
H      -1.55968447       4.42088133      -1.03642034        1 
C      -2.58144447      -1.39427221       0.67865834        6 
C       2.21954904      -1.46887343       0.76153932        6 
O       3.27151526      -1.55105821      -0.18176936        8 
H       2.15691160      -2.38815539       1.36178524        1 
H       2.37197568      -0.62897346       1.45292398        1 
C       4.55082767      -1.57568752       0.41872127        6 
H       5.28278757      -1.64668805      -0.38598347        1 
H       4.66539946      -2.44103042       1.08663393        1 
H       4.73862867      -0.65929711       0.99592230        1 
O      -3.58992355      -1.07669467      -0.27066363        8 
H      -2.62560042      -0.71901137       1.53495948        1 
H      -2.69211349      -2.43118349       1.02783865        1 
C      -4.87834814      -0.99048875       0.30887210        6 
H      -5.57538602      -0.73868741      -0.49109892        1 
H      -4.91308859      -0.20976130       1.07993118        1 
H      -5.18046193      -1.94728003       0.75781031        1 
