43
Lattice="0.0 0.0 0.0 0.0 0.0 0.0 0.0 0.0 0.0" Properties=species:S:1:pos:R:3:Z:I:1 pbc="F F F"
C      -0.70491568      -0.01666508      -0.64689380        6 
C       0.86640423       0.13372032      -0.54172395        6 
C      -1.53487332       1.20649186      -0.30286956        6 
C       1.33886347       1.20951543       0.43925797        6 
O      -1.42873988       2.10577586      -1.30430759        8 
O      -2.30992463       1.33813959       0.61311693        8 
O       0.99643707       2.43815262      -0.00554290        8 
O       1.97588076       1.04634729       1.44905630        8 
C       1.38998369       3.54282677       0.82858464        6 
C      -2.15733066       3.33032984      -1.13320712        6 
C      -0.94679086      -1.38462509       0.08529690        6 
C      -0.70707922      -2.47261646      -0.98240539        6 
C       0.81045146      -2.28950149      -1.23769444        6 
C       1.21883436      -1.31294761      -0.09289167        6 
O       0.21744688      -1.54067359       0.91572281        8 
H      -0.92777977      -0.15900396      -1.70512101        1 
H       1.29456530       0.38369264      -1.51184387        1 
H       2.47103436       3.54722531       0.97362765        1 
H      -1.80736781       3.86011398      -0.24519154        1 
H      -0.92187881      -3.45072061      -0.54730701        1 
H      -1.33173573      -2.34734673      -1.86650687        1 
H       1.35898207      -3.22727051      -1.14332405        1 
H       1.03754759      -1.87548081      -2.22141428        1 
H       1.07114505       4.43504087       0.29380908        1 
H       0.89667646       3.47927835       1.79976927        1 
H      -3.22572397       3.13246503      -1.03432304        1 
H      -1.95653921       3.91541935      -2.02816317        1 
C      -2.20094535      -1.55418019       0.91374097        6 
C       2.60271728      -1.57993370       0.46776829        6 
O       3.53758960      -1.13419846      -0.50517054        8 
H       2.71291889      -2.66078343       0.63985998        1 
H       2.74250910      -1.05404708       1.41325940        1 
C       4.87759947      -1.23996760      -0.06331928        6 
H       5.51313256      -0.86812031      -0.86761491        1 
H       5.14719162      -2.28365299       0.15226956        1 
H       5.04599664      -0.63773143       0.83941884        1 
O      -3.30202746      -1.46868430       0.02224776        8 
H      -2.25690503      -0.77904887       1.68209826        1 
H      -2.17205752      -2.53897248       1.40221553        1 
C      -4.53731788      -1.27112725       0.68533953        6 
H      -5.30955132      -1.22648281      -0.08346479        1 
H      -4.53178986      -0.33077682       1.24999368        1 
H      -4.76323520      -2.10164394       1.36913148        1 
