43
Lattice="0.0 0.0 0.0 0.0 0.0 0.0 0.0 0.0 0.0" Properties=species:S:1:pos:R:3:Z:I:1 pbc="F F F"
C      -0.82848441       0.12148916       0.90323869        6 
C       0.75094501       0.19242350       0.95103320        6 
C      -1.37360657      -1.24213550       0.51011073        6 
C       1.47860070      -1.13546072       0.86653329        6 
O      -1.46242724      -1.43598381      -0.81654528        8 
O      -1.70372751      -2.07217523       1.32396042        8 
O       1.38641876      -1.71198254      -0.35126966        8 
O       2.06231844      -1.63911506       1.79326350        8 
C       2.02045434      -2.99558736      -0.48970352        6 
C      -1.88732790      -2.74225520      -1.23549132        6 
C      -1.12309611       1.30757521      -0.06644365        6 
C      -0.74221198       2.62119435       0.67564458        6 
C       0.80234367       2.64439235       0.51397133        6 
C       1.04269962       1.27264537      -0.15522714        6 
O      -0.07874227       1.17581122      -1.04288379        8 
H      -1.23659300       0.30657472       1.89373594        1 
H       1.05279991       0.58161291       1.92059346        1 
H       1.59629721      -3.70767079       0.21980520        1 
H      -2.87311177      -2.97824857      -0.83203093        1 
H      -1.21110843       3.47578988       0.18555501        1 
H      -1.07078381       2.61371243       1.71543397        1 
H       1.11853868       3.43991465      -0.16379759        1 
H       1.34588053       2.75893649       1.45188175        1 
H       1.82229256      -3.30643385      -1.51351465        1 
H       3.09437801      -2.91323706      -0.31391955        1 
H      -1.17353717      -3.49625508      -0.89886609        1 
H      -1.91398134      -2.70239339      -2.32252446        1 
C      -2.47547563       1.32683224      -0.75343816        6 
C       2.32420363       1.11953768      -0.94590431        6 
O       3.38700097       1.03263016      -0.01292937        8 
H       2.45292102       1.98683542      -1.60919346        1 
H       2.26713241       0.21465284      -1.56127775        1 
C       4.64366700       0.79694289      -0.61787160        6 
H       5.37653020       0.71951065       0.18513512        1 
H       4.92741545       1.62056978      -1.28769070        1 
H       4.63993228      -0.13932013      -1.19321955        1 
O      -3.46109861       1.15461449       0.25167195        8 
H      -2.52838287       0.52431472      -1.49527963        1 
H      -2.60959031       2.28839845      -1.26974021        1 
C      -4.77611466       1.09411454      -0.26659009        6 
H      -5.44805083       0.93907174       0.57750008        1 
H      -4.88703076       0.26010993      -0.97326765        1 
H      -5.04924693       2.02788063      -0.77760954        1 
