43
Lattice="0.0 0.0 0.0 0.0 0.0 0.0 0.0 0.0 0.0" Properties=species:S:1:pos:R:3:Z:I:1 pbc="F F F"
C      -0.83803589       0.24666868      -0.72354007        6 
C       0.69909307       0.02754869      -0.83815088        6 
C      -1.16771044       1.38328356       0.24552946        6 
C       1.48131785       1.32925211      -0.94935023        6 
O      -2.50183555       1.51625439       0.40423195        8 
O      -0.37723070       2.15243826       0.73191274        8 
O       2.61270766       1.37524487      -0.23067423        8 
O       1.11447500       2.22314483      -1.67406441        8 
C       3.36006027       2.60159565      -0.33015358        6 
C      -2.93242538       2.61297220       1.23110681        6 
C      -1.21205992      -1.13250628      -0.07493944        6 
C      -0.75801253      -2.29178374      -1.01462770        6 
C       0.74373941      -2.43830620      -0.64954173        6 
C       0.95180092      -1.15217224       0.17472911        6 
O      -0.24153657      -1.16303739       0.99056889        8 
H      -1.33590047       0.42971502      -1.67378283        1 
H       0.87249585      -0.38558214      -1.83758772        1 
H       2.75192884       3.44005289       0.01126457        1 
H      -2.56091390       3.55810990       0.83341998        1 
H      -1.32478265      -3.19761913      -0.79869175        1 
H      -0.92626219      -2.04582495      -2.06391682        1 
H       0.91746301      -3.30864226      -0.01359135        1 
H       1.41067447      -2.50114923      -1.50875505        1 
H       4.22584594       2.46512773       0.31461448        1 
H       3.67289111       2.77640166      -1.36043486        1 
H      -2.57067866       2.48625845       2.25295399        1 
H      -4.01971356       2.58511985       1.20380402        1 
C      -2.60064331      -1.34494493       0.49422430        6 
C       2.16491631      -1.14266492       1.07661870        6 
O       3.29741644      -1.44625679       0.27977736        8 
H       2.02339504      -1.90930116       1.85244129        1 
H       2.27389949      -0.16825917       1.56157532        1 
C       4.51944438      -1.21462874       0.94850327        6 
H       5.32024994      -1.48110434       0.25794197        1 
H       4.60827163      -1.83219866       1.85400163        1 
H       4.62240177      -0.15821663       1.23034318        1 
O      -3.51379196      -1.29524437      -0.58700022        8 
H      -2.84499476      -0.58993622       1.24578737        1 
H      -2.62451394      -2.33269722       0.97839946        1 
C      -4.86362675      -1.33855712      -0.16975965        6 
H      -5.47995257      -1.29269863      -1.06787725        1 
H      -5.10587047      -0.48457413       0.47766435        1 
H      -5.08838410      -2.26851290       0.37197523        1 
