43
Lattice="0.0 0.0 0.0 0.0 0.0 0.0 0.0 0.0 0.0" Properties=species:S:1:pos:R:3:Z:I:1 pbc="F F F"
C      -0.74805698      -0.08395188      -0.78344723        6 
C       0.82283579       0.08410747      -0.81233631        6 
C      -1.49755870       1.12268275      -0.25943784        6 
C       1.24373162       1.45275583      -0.29500580        6 
O      -2.25717610       1.66769714      -1.22543986        8 
O      -1.43874421       1.55277426       0.86906239        8 
O       1.73790948       1.46311176       0.94853800        8 
O       1.09027485       2.45159731      -0.95995120        8 
C       1.99200347       2.76368192       1.51180583        6 
C      -3.00636169       2.83768408      -0.85424273        6 
C      -0.89129734      -1.37081408       0.10815125        6 
C      -0.58339499      -2.57427769      -0.81025435        6 
C       0.94900324      -2.41171253      -1.00271923        6 
C       1.26370902      -1.20746106      -0.06645024        6 
O       0.26407477      -1.33231361       0.95645095        8 
H      -1.12146316      -0.27963368      -1.78520301        1 
H       1.16691327       0.06904253      -1.84521820        1 
H       1.06235102       3.33134594       1.55906145        1 
H      -2.33003121       3.64162651      -0.56052432        1 
H      -0.82267113      -3.50177074      -0.28602728        1 
H      -1.15554244      -2.55122873      -1.73745492        1 
H       1.49005889      -3.29595288      -0.66272837        1 
H       1.24378759      -2.21870358      -2.03472419        1 
H       2.37622453       2.57418586       2.51168085        1 
H       2.72373742       3.30541661       0.91099207        1 
H      -3.68191585       2.61049576      -0.02784762        1 
H      -3.56795828       3.11528887      -1.74345473        1 
C      -2.13449670      -1.47555341       0.96530645        6 
C       2.64898380      -1.23046535       0.54976167        6 
O       3.56318621      -0.83415892      -0.46164964        8 
H       2.87667454      -2.24762255       0.89971721        1 
H       2.68953492      -0.54738170       1.40113247        1 
C       4.89269294      -0.72654414       0.00890442        6 
H       5.50684182      -0.40208298      -0.83144165        1 
H       5.26834582      -1.69185962       0.37645957        1 
H       4.96941170       0.01287458       0.81796481        1 
O      -3.25621188      -1.34379381       0.10663430        8 
H      -2.12606943      -0.68405182       1.72332828        1 
H      -2.14432847      -2.44923379       1.47553355        1 
C      -4.48797486      -1.34443997       0.80314174        6 
H      -5.27636469      -1.21792149       0.06088000        1 
H      -4.53616711      -0.51957831       1.52707446        1 
H      -4.64605570      -2.29191158       1.33708520        1 
