43
Lattice="0.0 0.0 0.0 0.0 0.0 0.0 0.0 0.0 0.0" Properties=species:S:1:pos:R:3:Z:I:1 pbc="F F F"
C      -0.55477698       0.15030769       0.86139914        6 
C       0.96235117      -0.22800845       0.72821512        6 
C      -1.49228898      -1.03712909       1.01465126        6 
C       1.30165132      -1.46730424      -0.10022134        6 
O      -2.44621393      -1.14541038       0.07646880        8 
O      -1.38321657      -1.80577676       1.94036643        8 
O       0.22736045      -2.20267101      -0.43115521        8 
O       2.41335896      -1.73592445      -0.48940512        8 
C       0.46648233      -3.36201122      -1.24726197        6 
C      -3.33237158      -2.26830445       0.21822587        6 
C      -0.70455697       1.30819338      -0.19471744        6 
C      -0.31667307       2.59509844       0.56187284        6 
C       1.17641949       2.30408765       0.86151950        6 
C       1.45207022       1.05562965      -0.02977935        6 
O       0.44164185       1.13961195      -1.05508648        8 
H      -0.65759553       0.61075766       1.84685561        1 
H       1.44838283      -0.34216057       1.69670789        1 
H       1.12875370      -4.05916436      -0.73251947        1 
H      -3.89673277      -2.19616076       1.14914415        1 
H      -0.42898108       3.45270647      -0.10465321        1 
H      -0.92630065       2.76641783       1.44910839        1 
H       1.82444826       3.12878843       0.56445035        1 
H       1.37506641       2.09715441       1.91392014        1 
H      -0.51240595      -3.80922175      -1.40568014        1 
H       0.91478270      -3.07040689      -2.19793617        1 
H      -2.76632324      -3.20108659       0.21497448        1 
H      -4.00139478      -2.22052431      -0.63869260        1 
C      -1.95051545       1.41486801      -1.04524043        6 
C       2.83042723       1.06941877      -0.65797061        6 
O       3.76944112       0.98700104       0.39990055        8 
H       2.94664833       2.01537923      -1.20836597        1 
H       2.95638189       0.24218312      -1.35874632        1 
C       5.07907019       0.68604465      -0.04543838        6 
H       5.71509318       0.63993713       0.83899300        1 
H       5.46325960       1.46424663      -0.72067537        1 
H       5.10366314      -0.28205191      -0.56075112        1 
O      -3.03252802       1.72670547      -0.18347295        8 
H      -2.13136446       0.47872510      -1.58079630        1 
H      -1.79955290       2.21816790      -1.78082292        1 
C      -4.28967625       1.62663743      -0.82021849        6 
H      -5.04801946       1.88096027      -0.07907015        1 
H      -4.46894434       0.60594137      -1.18473239        1 
H      -4.36985548       2.32324104      -1.66691533        1 
