43
Lattice="0.0 0.0 0.0 0.0 0.0 0.0 0.0 0.0 0.0" Properties=species:S:1:pos:R:3:Z:I:1 pbc="F F F"
C      -0.88587992      -0.03667244      -0.71736958        6 
C       0.68918165      -0.05472438      -0.86192872        6 
C      -1.47542645       1.22110067      -0.08845228        6 
C       1.40187092       1.24530198      -0.54120830        6 
O      -1.06429262       2.30053265      -0.78614468        8 
O      -2.26906226       1.29320992       0.81545682        8 
O       1.40964488       1.50924647       0.78562070        8 
O       1.85307356       1.99616476      -1.36752156        8 
C       1.99218156       2.76484884       1.17116049        6 
C      -1.57012940       3.57524248      -0.35653950        6 
C      -1.11782953      -1.37811129       0.03911939        6 
C      -0.77226745      -2.53473764      -0.94541511        6 
C       0.77777382      -2.54944035      -0.89115930        6 
C       1.05173894      -1.31758278       0.00045388        6 
O      -0.01408038      -1.39572571       0.95855180        8 
H      -1.33540458      -0.07550983      -1.71106814        1 
H       0.94996933      -0.23789904      -1.90201268        1 
H       1.49159418       3.58859013       0.66010797        1 
H      -1.33920221       3.74285818       0.69657531        1 
H      -1.19843856      -3.47093672      -0.58244556        1 
H      -1.17283617      -2.35531827      -1.94349993        1 
H       1.14972183      -3.44600931      -0.39142149        1 
H       1.26029766      -2.47770049      -1.86592764        1 
H       1.84853354       2.83396913       2.24739017        1 
H       3.05460194       2.78570700       0.92199246        1 
H      -2.65147267       3.62191333      -0.49695381        1 
H      -1.06940171       4.30874591      -0.98440419        1 
C      -2.41825523      -1.57816589       0.79104598        6 
C       2.38229478      -1.30816414       0.72467471        6 
O       3.38151697      -0.99089626      -0.22972846        8 
H       2.56514001      -2.29738976       1.16810552        1 
H       2.35991309      -0.56535186       1.52883623        1 
C       4.66486388      -0.82597573       0.34181415        6 
H       5.34905806      -0.58017019      -0.47024544        1 
H       5.00625283      -1.74650296       0.83519309        1 
H       4.67054227      -0.00942080       1.07738037        1 
O      -3.46814383      -1.46554616      -0.15694766        8 
H      -2.52063591      -0.83157098       1.58038628        1 
H      -2.41185477      -2.58076547       1.24395352        1 
C      -4.74910221      -1.43978283       0.44387619        6 
H      -5.47965121      -1.34517067      -0.36011254        1 
H      -4.84708539      -0.58523704       1.12544297        1 
H      -4.94945798      -2.36624798       1.00104410        1 
