43
Lattice="0.0 0.0 0.0 0.0 0.0 0.0 0.0 0.0 0.0" Properties=species:S:1:pos:R:3:Z:I:1 pbc="F F F"
C      -0.81462673       0.09456481      -0.72234696        6 
C       0.72911643       0.19932917      -0.63484226        6 
C      -1.65947222       1.35443537      -0.63248970        6 
C       1.22149636       1.16402859       0.43476916        6 
O      -0.91973978       2.47271489      -0.76252526        8 
O      -2.86602429       1.36247482      -0.69549917        8 
O       2.51948106       1.48442619       0.21754680        8 
O       0.57713710       1.61330683       1.34701318        8 
C       3.10816354       2.38525416       1.17100520        6 
C      -1.64930148       3.70766944      -0.85969718        6 
C      -1.13830580      -1.18053827       0.14569501        6 
C      -1.00512800      -2.38328857      -0.80919770        6 
C       0.50908943      -2.30124939      -1.14989268        6 
C       1.01862961      -1.25959155      -0.11158010        6 
O       0.05132964      -1.34412462       0.94581851        8 
H      -1.03655630      -0.18533823      -1.75824044        1 
H       1.21931423       0.41184785      -1.58160295        1 
H       3.06972011       1.96091901       2.17599199        1 
H      -2.23769576       3.87159044       0.04413183        1 
H      -1.24627787      -3.30193440      -0.27165986        1 
H      -1.66289419      -2.31190559      -1.67485279        1 
H       1.01637930      -3.25582835      -1.00592184        1 
H       0.70615752      -1.97826229      -2.17307870        1 
H       4.13905374       2.51604011       0.84867367        1 
H       2.58131534       3.34087808       1.16878558        1 
H      -2.31414397       3.69398148      -1.72495261        1 
H      -0.89241121       4.48154360      -0.96702577        1 
C      -2.36091320      -1.16178067       1.03886443        6 
C       2.40144069      -1.54982401       0.43299116        6 
O       3.30771072      -1.48418935      -0.65202728        8 
H       2.39987396      -2.55300261       0.88375081        1 
H       2.67611628      -0.83219796       1.21554583        1 
C       4.66114471      -1.52226460      -0.24532581        6 
H       5.26980012      -1.46581434      -1.14796612        1 
H       4.89620680      -2.45416112       0.28815466        1 
H       4.90135714      -0.67022896       0.40534883        1 
O      -3.48501918      -1.50682408       0.25005330        8 
H      -2.48535928      -0.17375837       1.49561320        1 
H      -2.21335289      -1.89468158       1.84508627        1 
C      -4.71315979      -1.07054366       0.80145016        6 
H      -5.50165301      -1.41179645       0.13002653        1 
H      -4.74375195       0.02363342       0.86579096        1 
H      -4.88268531      -1.50104480       1.79887729        1 
