43
Lattice="0.0 0.0 0.0 0.0 0.0 0.0 0.0 0.0 0.0" Properties=species:S:1:pos:R:3:Z:I:1 pbc="F F F"
C      -0.89462007       0.13186458      -0.63589420        6 
C       0.67038523      -0.06081839      -0.69666542        6 
C      -1.38121686       1.39511652       0.06471003        6 
C       1.49704524       1.03445323      -0.05359506        6 
O      -0.67567214       2.45955227      -0.37698465        8 
O      -2.32815471       1.50366705       0.80122398        8 
O       2.17891444       1.72779954      -0.98573064        8 
O       1.58860597       1.24575477       1.13280152        8 
C       3.01199790       2.78633922      -0.48946659        6 
C      -1.02397699       3.73454580       0.18987826        6 
C      -1.33822778      -1.23887648      -0.04259963        6 
C      -1.08462824      -2.32094415      -1.13208246        6 
C       0.44907950      -2.53211249      -1.02448754        6 
C       0.82094865      -1.45513950       0.01757453        6 
O      -0.29819766      -1.49644993       0.91445104        8 
H      -1.28132924       0.23931124      -1.65249341        1 
H       0.99474806      -0.13383259      -1.73159915        1 
H       3.80129406       2.38338721       0.14790466        1 
H      -0.82241076       3.73414470       1.26218363        1 
H      -1.63362253      -3.22997223      -0.88337274        1 
H      -1.41612390      -1.99583344      -2.11850340        1 
H       0.68614137      -3.52063420      -0.62630121        1 
H       0.98542322      -2.40783073      -1.96527454        1 
H       3.43871279       3.25969082      -1.37120681        1 
H       2.42000083       3.50163904       0.08389462        1 
H      -2.07801074       3.95557974       0.01747304        1 
H      -0.39141574       4.45879820      -0.31874569        1 
C      -2.69173631      -1.34307508       0.62968906        6 
C       2.09725705      -1.69157632       0.79816052        6 
O       3.18365482      -1.44071073      -0.08114077        8 
H       2.11819912      -2.73000733       1.15769670        1 
H       2.13044449      -1.01820916       1.65982757        1 
C       4.44001419      -1.48630419       0.56864665        6 
H       5.19812179      -1.26186213      -0.18216269        1 
H       4.63741981      -2.48132945       0.99117424        1 
H       4.49558638      -0.74272871       1.37520103        1 
O      -3.67201454      -1.04658687      -0.35204475        8 
H      -2.75472470      -0.64771339       1.46845514        1 
H      -2.81871842      -2.36919564       1.00549026        1 
C      -4.95276438      -0.81600364       0.20544341        6 
H      -5.63007267      -0.60341179      -0.62238105        1 
H      -4.93315936       0.04195034       0.88898336        1 
H      -5.31937393      -1.69943672       0.74760813        1 
