43
Lattice="0.0 0.0 0.0 0.0 0.0 0.0 0.0 0.0 0.0" Properties=species:S:1:pos:R:3:Z:I:1 pbc="F F F"
C      -0.84408274       0.07893454       0.89840734        6 
C       0.73221479       0.16718362       0.95709025        6 
C      -1.43512881      -1.25533174       0.47059713        6 
C       1.51755008      -1.13111990       0.90186674        6 
O      -1.29661196      -1.51203443      -0.84089073        8 
O      -2.02506530      -1.98852027       1.22934817        8 
O       1.42546025      -1.76656261      -0.28346685        8 
O       2.18178603      -1.54405640       1.82090045        8 
C       2.15894406      -2.99847810      -0.39801301        6 
C      -1.80321836      -2.77561166      -1.29591662        6 
C      -1.14178803       1.26942520      -0.07133601        6 
C      -0.76704085       2.58612328       0.66657077        6 
C       0.77727898       2.61777614       0.49862450        6 
C       1.02232389       1.24263120      -0.16042028        6 
O      -0.09922038       1.13728721      -1.04673557        8 
H      -1.26317426       0.26120317       1.88465847        1 
H       1.01222335       0.57940940       1.92362416        1 
H       1.81936254      -3.71639154       0.35012896        1 
H      -2.87621968      -2.85324167      -1.11170209        1 
H      -1.24371452       3.43653917       0.17671277        1 
H      -1.09249454       2.57868711       1.70709042        1 
H       1.08564025       3.40943514      -0.18724513        1 
H       1.32328680       2.74383302       1.43350124        1 
H       1.95369252      -3.36369343      -1.40223491        1 
H       3.22752455      -2.82243140      -0.26280239        1 
H      -1.29505999      -3.59565906      -0.78525657        1 
H      -1.59363206      -2.80258641      -2.36322569        1 
C      -2.49479711       1.28362785      -0.75434924        6 
C       2.30074857       1.09090417      -0.95579641        6 
O       3.37395745       1.06379983      -0.03221415        8 
H       2.40013830       1.93705103      -1.65089782        1 
H       2.26098373       0.16419116      -1.53975520        1 
C       4.62893164       0.82925451      -0.64100900        6 
H       5.37272795       0.80875607       0.15529340        1 
H       4.88408022       1.62567723      -1.35394485        1 
H       4.64139936      -0.13379624      -1.17029621        1 
O      -3.47863878       1.26371103       0.26556339        8 
H      -2.59677397       0.41600486      -1.41476317        1 
H      -2.58222420       2.19301475      -1.36660467        1 
C      -4.79870916       1.18339294      -0.23732469        6 
H      -5.46765196       1.14386389       0.62219991        1 
H      -4.93859438       0.27763605      -0.84346868        1 
H      -5.04911878       2.06094404      -0.84972779        1 
