43
Lattice="0.0 0.0 0.0 0.0 0.0 0.0 0.0 0.0 0.0" Properties=species:S:1:pos:R:3:Z:I:1 pbc="F F F"
C      -0.91364734       0.11933642      -0.67352203        6 
C       0.65705842       0.13874996      -0.71390190        6 
C      -1.56761623       1.29684457       0.04000388        6 
C       1.34257923       1.34006750      -0.08765102        6 
O      -1.70691672       2.32040290      -0.83364345        8 
O      -1.93316848       1.34735445       1.18509488        8 
O       2.62224805       1.41173710      -0.51663198        8 
O       0.85948798       2.14962628       0.66302334        8 
C       3.40506174       2.49304604       0.01836136        6 
C      -2.20247752       3.54826674      -0.27276264        6 
C      -1.17529025      -1.26761062      -0.01021031        6 
C      -0.82484922      -2.36309239      -1.05331462        6 
C       0.72567357      -2.36201691      -1.00794269        6 
C       0.99398256      -1.22741207       0.00741823        6 
O      -0.09148438      -1.36719623       0.93030545        8 
H      -1.29834322       0.13613227      -1.69199901        1 
H       1.01371126       0.09425250      -1.74177265        1 
H       3.49912662       2.39718387       1.10185316        1 
H      -1.53461863       3.89032371       0.51901379        1 
H      -1.23436100      -3.32291092      -0.73435809        1 
H      -1.23532888      -2.13749718      -2.03776098        1 
H       1.11723369      -3.30172674      -0.61489596        1 
H       1.20228947      -2.17889865      -1.97029809        1 
H       4.37864760       2.40897806      -0.45935944        1 
H       2.94290176       3.45336075      -0.21484091        1 
H      -3.20531520       3.40651184       0.13357848        1 
H      -2.22183751       4.25829774      -1.09709447        1 
C      -2.49667374      -1.47322472       0.70260493        6 
C       2.30137085      -1.34058294       0.76483133        6 
O       3.34721431      -1.50170298      -0.17383698        8 
H       2.23651477      -2.21266168       1.43123433        1 
H       2.46750486      -0.45496897       1.39290470        1 
C       4.63015323      -1.36205944       0.40050781        6 
H       5.35807750      -1.50774033      -0.39783777        1 
H       4.80549116      -2.11012034       1.18668054        1 
H       4.76437719      -0.35988013       0.83106051        1 
O      -3.52290633      -1.20912853      -0.24351029        8 
H      -2.56912538      -0.79804683       1.55780493        1 
H      -2.55510096      -2.51270333       1.05689847        1 
C      -4.81783053      -1.25843467       0.32496972        6 
H      -5.52837808      -1.03919422      -0.47255777        1 
H      -4.92871171      -0.51376037       1.12409894        1 
H      -5.03667125      -2.25429891       0.73568386        1 
