43
Lattice="0.0 0.0 0.0 0.0 0.0 0.0 0.0 0.0 0.0" Properties=species:S:1:pos:R:3:Z:I:1 pbc="F F F"
C      -0.78229319      -0.10863080      -0.75677209        6 
C       0.79055466       0.07735944      -0.79528440        6 
C      -1.52013120       1.12528910      -0.27902152        6 
C       1.21193347       1.41767791      -0.21017706        6 
O      -1.90916623       1.85995277      -1.33728720        8 
O      -1.74204122       1.43563440       0.86754406        8 
O       1.49851245       1.38016538       1.09902889        8 
O       1.21768627       2.43544467      -0.86330413        8 
C       1.74973918       2.64979120       1.72882873        6 
C      -2.52074106       3.12743762      -1.04144353        6 
C      -0.91610838      -1.40289051       0.11095561        6 
C      -0.60464109      -2.58921602      -0.83143698        6 
C       0.92566624      -2.41584950      -1.03080128        6 
C       1.23809137      -1.22840540      -0.07451214        6 
O       0.24622224      -1.37766085       0.95289900        8 
H      -1.14079716      -0.29869876      -1.76612934        1 
H       1.13625774       0.10022319      -1.82619594        1 
H       0.86335914       3.28119464       1.65786852        1 
H      -1.80954817       3.77245544      -0.52324389        1 
H      -0.83511518      -3.52615133      -0.32040216        1 
H      -1.18294876      -2.55544445      -1.75452441        1 
H       1.47293054      -3.30353550      -0.71035252        1 
H       1.21366773      -2.20202707      -2.06060511        1 
H       1.96742515       2.41657563       2.76869297        1 
H       2.59565845       3.15190860       1.25727901        1 
H      -3.40968939       2.99028738      -0.42394289        1 
H      -2.78474416       3.55280036      -2.00700980        1 
C      -2.16335409      -1.53518168       0.95816240        6 
C       2.62778962      -1.24321102       0.53314983        6 
O       3.52747418      -0.79413038      -0.46935806        8 
H       2.87993563      -2.26500910       0.85067473        1 
H       2.65836593      -0.58604249       1.40592199        1 
C       4.86369528      -0.70617011      -0.01317522        6 
H       5.46343014      -0.33305342      -0.84356965        1 
H       5.24818239      -1.68848866       0.29518540        1 
H       4.95047862      -0.01214766       0.83424586        1 
O      -3.27596522      -1.40060008       0.08591147        8 
H      -2.17374680      -0.75578190       1.72629581        1 
H      -2.16974598      -2.51914649       1.44855896        1 
C      -4.51285259      -1.36514601       0.77291355        6 
H      -5.29433843      -1.24772900       0.02171617        1 
H      -4.55279186      -0.52017790       1.47306995        1 
H      -4.68858527      -2.29616209       1.33000943        1 
