43
Lattice="0.0 0.0 0.0 0.0 0.0 0.0 0.0 0.0 0.0" Properties=species:S:1:pos:R:3:Z:I:1 pbc="F F F"
C      -0.78379138       0.12187760       0.91006128        6 
C       0.79370303       0.12057544       0.92513242        6 
C      -1.44581363      -1.20803766       0.58000100        6 
C       1.54428219      -1.17956776       0.71331846        6 
O      -1.64551932      -1.42014418      -0.73088636        8 
O      -1.81315675      -1.97747588       1.43698424        8 
O       1.05032368      -1.92716939      -0.29255065        8 
O       2.52875492      -1.48751817       1.34034562        8 
C       1.72861519      -3.16774756      -0.55615256        6 
C      -2.24286508      -2.67791942      -1.07766532        6 
C      -1.05109544       1.30929323      -0.07011168        6 
C      -0.63638689       2.61847963       0.65905456        6 
C       0.90871372       2.59145842       0.51738893        6 
C       1.11224957       1.22064406      -0.16379220        6 
O      -0.01019060       1.14550195      -1.04849719        8 
H      -1.15166752       0.35436540       1.90692152        1 
H       1.14861656       0.46766012       1.89299192        1 
H       1.66529181      -3.82596793       0.31149388        1 
H      -3.23222066      -2.77335491      -0.62707629        1 
H      -1.07016916       3.47960885       0.14854224        1 
H      -0.97932522       2.63866699       1.69388946        1 
H       1.26393507       3.38421238      -0.14373248        1 
H       1.44756164       2.67261000       1.46056830        1 
H       1.21095969      -3.60388740      -1.40797742        1 
H       2.77797494      -2.98842512      -0.79526368        1 
H      -1.61519752      -3.50260958      -0.73525411        1 
H      -2.31280861      -2.67585448      -2.16362271        1 
C      -2.40206316       1.36700019      -0.75911482        6 
C       2.39730515       1.06296162      -0.94827198        6 
O       3.46965570       1.30950228      -0.05953340        8 
H       2.39907849       1.78169148      -1.78051788        1 
H       2.46160098       0.05438358      -1.37713088        1 
C       4.72186306       0.87536553      -0.55462490        6 
H       5.46705164       1.12299363       0.20102889        1 
H       4.98063491       1.38146707      -1.49536362        1 
H       4.72558529      -0.21066155      -0.71724115        1 
O      -3.39209630       1.18805500       0.24038781        8 
H      -2.46591929       0.58357213      -1.51911978        1 
H      -2.51977455       2.34296803      -1.25154793        1 
C      -4.70576838       1.14193503      -0.28197200        6 
H      -5.38159950       0.98958858       0.55952921        1 
H      -4.82150627       0.31181216      -0.99247532        1 
H      -4.96910016       2.08019216      -0.78988514        1 
