43
Lattice="0.0 0.0 0.0 0.0 0.0 0.0 0.0 0.0 0.0" Properties=species:S:1:pos:R:3:Z:I:1 pbc="F F F"
C      -0.73549905       0.05909362       0.86348766        6 
C       0.81047014      -0.18191518       0.75643051        6 
C      -1.55541202      -1.22224401       0.94711360        6 
C       1.15911186      -1.42731931      -0.06169605        6 
O      -2.37748259      -1.44413208      -0.08886945        8 
O      -1.45283184      -1.96663364       1.89244775        8 
O       2.47269197      -1.48114090      -0.36181222        8 
O       0.40800821      -2.33793483      -0.30889496        8 
C       2.91461308      -2.67406318      -1.03629931        6 
C      -3.06406907      -2.70793588      -0.07656276        6 
C      -0.96592688       1.22076481      -0.16949700        6 
C      -0.70741649       2.51950402       0.62080714        6 
C       0.79923316       2.35243620       0.94644967        6 
C       1.19996828       1.15248991       0.03243429        6 
O       0.20611216       1.17142498      -1.01088830        8 
H      -0.90776414       0.47765343       1.85721709        1 
H       1.28887647      -0.28745279       1.73020265        1 
H       2.41466128      -2.77445738      -2.00091914        1 
H      -3.71086590      -2.78616646       0.79856423        1 
H      -0.88299680       3.37957251      -0.02875276        1 
H      -1.34756486       2.61310616       1.49750514        1 
H       1.37853735       3.23805393       0.68499805        1 
H       0.99139874       2.13576712       1.99810186        1 
H       3.98681990      -2.54812825      -1.17102040        1 
H       2.70372399      -3.55527503      -0.42913378        1 
H      -2.33873811      -3.52238723      -0.06942042        1 
H      -3.65362981      -2.72585762      -0.99125222        1 
C      -2.20765340       1.23116419      -1.03233132        6 
C       2.57609840       1.31670923      -0.58107151        6 
O       3.52003197       1.26390806       0.47334015        8 
H       2.61042184       2.29472712      -1.08386565        1 
H       2.77394638       0.54132639      -1.32424990        1 
C       4.85647294       1.22906886       0.01572502        6 
H       5.49769868       1.18375374       0.89632840        1 
H       5.10808577       2.12825851      -0.56472211        1 
H       5.03764598       0.34300161      -0.60818734        1 
O      -3.31946019       1.39018322      -0.16600433        8 
H      -2.28568599       0.30259501      -1.60317732        1 
H      -2.14055031       2.07521958      -1.73450346        1 
C      -4.55758408       1.16842036      -0.81017861        6 
H      -5.33885064       1.30452840      -0.06179310        1 
H      -4.61641836       0.14805008      -1.21207550        1 
H      -4.71971062       1.88279979      -1.62999389        1 
