43
Lattice="0.0 0.0 0.0 0.0 0.0 0.0 0.0 0.0 0.0" Properties=species:S:1:pos:R:3:Z:I:1 pbc="F F F"
C      -0.80695786       0.11135680       0.86742359        6 
C       0.77339327       0.18232139       0.93150696        6 
C      -1.30532014      -1.26692702       0.44800943        6 
C       1.46541071      -1.16448454       0.87545906        6 
O      -1.80416218      -1.33532480      -0.79834608        8 
O      -1.20659266      -2.23216359       1.16691933        8 
O       1.55337155      -1.65116930      -0.38379411        8 
O       1.79707178      -1.78754985       1.85014428        8 
C       2.05388200      -2.99522445      -0.49656350        6 
C      -2.20935982      -2.64239141      -1.24157250        6 
C      -1.09065226       1.33501993      -0.04995328        6 
C      -0.67348997       2.61371582       0.73915078        6 
C       0.86423623       2.63323274       0.53525486        6 
C       1.07667420       1.27079901      -0.15919830        6 
O      -0.05636207       1.21223495      -1.04123489        8 
H      -1.21715743       0.26025091       1.86513823        1 
H       1.05837322       0.56955200       1.90771143        1 
H       1.41760951      -3.67931922       0.06698107        1 
H      -2.99873575      -3.03831717      -0.60108348        1 
H      -1.15003230       3.49404646       0.30575195        1 
H      -0.97290083       2.55845339       1.78659341        1 
H       1.16519930       3.43632731      -0.14061363        1 
H       1.43556068       2.72997729       1.45855683        1 
H       2.02741193      -3.22670394      -1.55963696        1 
H       3.07465188      -3.05801394      -0.11577330        1 
H      -1.35986901      -3.32669919      -1.22760971        1 
H      -2.57097448      -2.50293929      -2.25823034        1 
C      -2.45039555       1.43031165      -0.71780610        6 
C       2.35236540       1.11442008      -0.96003397        6 
O       3.41192762       0.93523198      -0.03439868        8 
H       2.51654222       2.01329723      -1.57153818        1 
H       2.26437065       0.24847101      -1.62322338        1 
C       4.64924403       0.64885958      -0.65727983        6 
H       5.38305240       0.50643998       0.13607241        1 
H       4.97434761       1.47553513      -1.30421087        1 
H       4.58741103      -0.26731683      -1.26081263        1 
O      -3.42835182       1.22221865       0.28922579        8 
H      -2.53462859       0.68004225      -1.50678233        1 
H      -2.56503339       2.42757343      -1.16674315        1 
C      -4.74841281       1.21052649      -0.21822651        6 
H      -5.41700685       1.03818615       0.62541711        1 
H      -4.88295707       0.40709054      -0.95555067        1 
H      -5.00592265       2.16904404      -0.69021581        1 
