43
Lattice="0.0 0.0 0.0 0.0 0.0 0.0 0.0 0.0 0.0" Properties=species:S:1:pos:R:3:Z:I:1 pbc="F F F"
C      -0.81727127       0.18825799      -0.73634182        6 
C       0.72248885      -0.02893744      -0.77899514        6 
C      -1.32009781       1.33570566       0.12425493        6 
C       1.62192605       1.18975525      -0.67112884        6 
O      -0.53542463       1.57227272       1.19272839        8 
O      -2.37021181       1.90320373      -0.06340081        8 
O       0.95412448       2.31817780      -0.99808267        8 
O       2.82047550       1.16070571      -0.53377917        8 
C       1.74105076       3.51623830      -1.11054471        6 
C      -0.97083050       2.61582765       2.07765452        6 
C      -1.23452612      -1.16899125      -0.06282142        6 
C      -0.86394476      -2.33887454      -1.01901743        6 
C       0.65203774      -2.51888155      -0.73058548        6 
C       0.92455469      -1.28235179       0.15273870        6 
O      -0.25457358      -1.27407383       0.98014873        8 
H      -1.26734083       0.30732045      -1.71878415        1 
H       0.96904478      -0.35567965      -1.79573381        1 
H       2.51795569       3.39286193      -1.86656394        1 
H      -1.95149211       2.38194878       2.49480250        1 
H      -1.43809000      -3.22982580      -0.76293024        1 
H      -1.08409127      -2.09508062      -2.05879687        1 
H       0.84441688      -3.42363695      -0.15131542        1 
H       1.27858624      -2.54670898      -1.62110547        1 
H       1.03945214       4.29479016      -1.40179891        1 
H       2.20732553       3.75669408      -0.15370338        1 
H      -1.02724410       3.56667111       1.54436821        1 
H      -0.22159913       2.66064330       2.86506711        1 
C      -2.63023502      -1.24783039       0.51922204        6 
C       2.16125533      -1.35817695       1.02264746        6 
O       3.23955434      -1.77664354       0.20612258        8 
H       1.97556345      -2.08764107       1.82437444        1 
H       2.36909188      -0.38699915       1.48420786        1 
C       4.50801007      -1.45950440       0.74836632        6 
H       5.25587566      -1.84552754       0.05506020        1 
H       4.65531627      -1.93139719       1.73053625        1 
H       4.62940207      -0.37392463       0.84256953        1 
O      -3.53835455      -1.23482624      -0.56541036        8 
H      -2.82178380      -0.40667735       1.19684529        1 
H      -2.72261220      -2.17745453       1.10002877        1 
C      -4.88271985      -1.04617322      -0.16362129        6 
H      -5.49060248      -1.05682051      -1.06835299        1 
H      -5.00994341      -0.08160741       0.34450246        1 
H      -5.21940623      -1.85219574       0.50396538        1 
