43
Lattice="0.0 0.0 0.0 0.0 0.0 0.0 0.0 0.0 0.0" Properties=species:S:1:pos:R:3:Z:I:1 pbc="F F F"
C      -0.75057703      -0.04840330       0.81757056        6 
C       0.81777508       0.03079190       0.76933762        6 
C      -1.38075984      -1.28556125       0.20724470        6 
C       1.55127550      -1.25038348       0.40187918        6 
O      -0.94263941      -1.51241857      -1.05155862        8 
O      -2.20315902      -1.97519199       0.75641661        8 
O       0.92154938      -2.31400284       0.94825627        8 
O       2.61727248      -1.34073774      -0.15355892        8 
C       1.53461265      -3.59885269       0.74940439        6 
C      -1.46513938      -2.68331046      -1.69842684        6 
C      -1.12016939       1.25667046       0.03035674        6 
C      -0.79334535       2.46703540       0.94017773        6 
C       0.75261513       2.53227047       0.82059992        6 
C       1.04639971       1.31592553      -0.09485300        6 
O      -0.09434759       1.31905363      -0.97015794        8 
H      -1.12609043      -0.00735009       1.83647475        1 
H       1.18413659       0.22259483       1.78255015        1 
H       2.51162299      -3.63566866       1.23385768        1 
H      -2.54862464      -2.61204708      -1.80944628        1 
H      -1.26717150       3.36710789       0.54469813        1 
H      -1.15342097       2.32154711       1.95869703        1 
H       1.07521998       3.44586082       0.31876570        1 
H       1.27777875       2.47305903       1.77341302        1 
H       0.85333002      -4.31515932       1.20327121        1 
H       1.65528146      -3.80174198      -0.31599085        1 
H      -1.22650394      -3.57703253      -1.11874445        1 
H      -0.98276969      -2.71652833      -2.67301576        1 
C      -2.48524792       1.29513285      -0.62542008        6 
C       2.31813702       1.43970766      -0.90679433        6 
O       3.38816820       1.58451701       0.01187906        8 
H       2.23538800       2.32868693      -1.54924723        1 
H       2.46041245       0.56075704      -1.54001351        1 
C       4.65429970       1.33032063      -0.56808110        6 
H       5.39904560       1.47221382       0.21577689        1 
H       4.86645331       2.02758495      -1.39127380        1 
H       4.71084429       0.30066741      -0.94077809        1 
O      -3.45072736       1.28236212       0.40934920        8 
H      -2.61664373       0.43647060      -1.29607945        1 
H      -2.56658803       2.20960927      -1.23099703        1 
C      -4.77455758       1.12849647      -0.06550759        6 
H      -5.42873281       1.12393272       0.80618406        1 
H      -4.89350653       0.18060339      -0.60774868        1 
H      -5.06280082       1.95677964      -0.72818080        1 
