43
Lattice="0.0 0.0 0.0 0.0 0.0 0.0 0.0 0.0 0.0" Properties=species:S:1:pos:R:3:Z:I:1 pbc="F F F"
C      -0.78879718       0.01371954      -0.62926701        6 
C       0.79868405       0.01528538      -0.62978163        6 
C      -1.42166802       1.20035091       0.07981772        6 
C       1.42754715       1.19978280       0.08670961        6 
O      -1.46970245       2.25749681      -0.75911147        8 
O      -1.88062800       1.22819080       1.19478437        8 
O       1.45020638       2.26799534      -0.73932477        8 
O       1.89653740       1.22124272       1.19745400        8 
C       2.00164250       3.47707305      -0.19073034        6 
C      -2.04021277       3.46264673      -0.22175408        6 
C      -1.08002667      -1.39378960      -0.02329474        6 
C      -0.77222683      -2.43391043      -1.13161024        6 
C       0.77894518      -2.43242424      -1.13614097        6 
C       1.09169742      -1.39340380      -0.02811745        6 
O       0.00778920      -1.58294577       0.89548473        8 
H      -1.14279350       0.06844449      -1.65718294        1 
H       1.15294934       0.07525202      -1.65733682        1 
H       3.04867228       3.33174767       0.08004816        1 
H      -1.48583652       3.78937996       0.65966181        1 
H      -1.17165924      -3.40683063      -0.84031613        1 
H      -1.21793410      -2.16422769      -2.08929795        1 
H       1.18180931      -3.40506704      -0.84875343        1 
H       1.21845922      -2.16050536      -2.09610105        1 
H       1.90956991       4.22107403      -0.97895427        1 
H       1.44404037       3.78400650       0.69581797        1 
H      -3.08382563       3.30199214       0.05385003        1 
H      -1.96388439       4.19947298      -1.01836487        1 
C      -2.40086088      -1.59218037       0.69178826        6 
C       2.41557755      -1.59209864       0.68113141        6 
O       3.43736379      -1.21844905      -0.23279644        8 
H       2.51749017      -2.64922845       0.96545462        1 
H       2.45288767      -0.97403497       1.58059116        1 
C       4.72101553      -1.19304609       0.36326505        6 
H       5.42803352      -0.88316180      -0.40691886        1 
H       5.00959522      -2.18625315       0.73514779        1 
H       4.75447818      -0.47881566       1.19656501        1 
O      -3.42742451      -1.22923151      -0.22105877        8 
H      -2.43800114      -0.96853718       1.58751541        1 
H      -2.49721181      -2.64792372       0.98322563        1 
C      -4.71121598      -1.22236000       0.37517219        6 
H      -5.42261899      -0.92150234      -0.39454272        1 
H      -4.75501694      -0.50983333       1.20946614        1 
H      -4.98570737      -2.22002168       0.74585238        1 
