43
Lattice="0.0 0.0 0.0 0.0 0.0 0.0 0.0 0.0 0.0" Properties=species:S:1:pos:R:3:Z:I:1 pbc="F F F"
C      -0.76775820       0.12793596       0.88018258        6 
C       0.79976804      -0.04362433       0.79091103        6 
C      -1.58859351      -1.14978711       0.87415025        6 
C       1.22883032      -1.40702677       0.24340670        6 
O      -1.89091340      -1.58309168      -0.36725983        8 
O      -1.88718435      -1.74353872       1.87849956        8 
O       2.25680424      -1.36451673      -0.62099032        8 
O       0.72584576      -2.44630362       0.59422134        8 
C       2.71785203      -2.63714290      -1.11321242        6 
C      -2.54381752      -2.86257118      -0.43476620        6 
C      -1.02510570       1.25857488      -0.18222502        6 
C      -0.78460417       2.58617807       0.56228185        6 
C       0.73460943       2.47390503       0.84643610        6 
C       1.14225892       1.24072650      -0.02484134        6 
O       0.12746781       1.19923737      -1.04401089        8 
H      -0.98790738       0.53670479       1.86529522        1 
H       1.23426160      -0.00269063       1.79147308        1 
H       1.91047329      -3.16209229      -1.62509009        1 
H      -3.49137245      -2.83705780       0.10559239        1 
H      -1.00570061       3.42178106      -0.10518414        1 
H      -1.40045408       2.68540291       1.45595516        1 
H       1.27892536       3.36167795       0.52352261        1 
H       0.96506343       2.31556798       1.90076917        1 
H       3.52311210      -2.40200049      -1.80608717        1 
H       3.08408689      -3.25349889      -0.29126314        1 
H      -1.90020501      -3.63025594      -0.00332744        1 
H      -2.71063988      -3.04859467      -1.49418391        1 
C      -2.28742900       1.18864522      -1.01450402        6 
C       2.50856589       1.40078144      -0.66424918        6 
O       3.47201741       1.28657602       0.36998699        8 
H       2.55871240       2.39584356      -1.13060397        1 
H       2.66859627       0.64666048      -1.43574176        1 
C       4.80051478       1.28105781      -0.11221018        6 
H       5.45733853       1.17937462       0.75209448        1 
H       5.04249045       2.21567009      -0.63792217        1 
H       4.97019697       0.43757449      -0.79558365        1 
O      -3.38052511       1.11112667      -0.11406355        8 
H      -2.25452297       0.31100569      -1.66564998        1 
H      -2.36138757       2.09102648      -1.63875571        1 
C      -4.60754694       0.82391296      -0.75594628        6 
H      -5.37279668       0.77723493       0.01904485        1 
H      -4.56307463      -0.14115039      -1.27883349        1 
H      -4.87622676       1.60621169      -1.47969444        1 
