43
Lattice="0.0 0.0 0.0 0.0 0.0 0.0 0.0 0.0 0.0" Properties=species:S:1:pos:R:3:Z:I:1 pbc="F F F"
C      -0.98813129       0.07836550      -0.70999150        6 
C       0.57643556      -0.06030493      -0.85137977        6 
C      -1.52328376       1.25417138       0.11627180        6 
C       1.37599499       1.23118618      -0.91917687        6 
O      -0.73350763       2.33791851       0.04431268        8 
O      -2.55659076       1.25222389       0.74048014        8 
O       2.10934382       1.49905358       0.17710873        8 
O       1.31722907       1.96925208      -1.87147731        8 
C       2.84107540       2.73512953       0.14992256        6 
C      -1.18092976       3.50758850       0.75106666        6 
C      -1.27974241      -1.29945185      -0.02882630        6 
C      -0.82935260      -2.43985744      -0.99447403        6 
C       0.69113912      -2.52954796      -0.71037997        6 
C       0.88926556      -1.25197900       0.13029077        6 
O      -0.26269027      -1.29965628       0.99344087        8 
H      -1.46231868       0.15882580      -1.68979315        1 
H       0.73574775      -0.43953284      -1.86297082        1 
H       2.15995567       3.57705673       0.01775148        1 
H      -1.21650524       3.31276292       1.82400441        1 
H      -1.34881353      -3.36579834      -0.74797558        1 
H      -1.06327821      -2.20234098      -2.03300247        1 
H       0.93607910      -3.40401434      -0.10388237        1 
H       1.31539400      -2.54623328      -1.60319181        1 
H       3.34467825       2.79583335       1.11271769        1 
H       3.56791542       2.73304690      -0.66390355        1 
H      -2.17104880       3.80701743       0.40552217        1 
H      -0.44728807       4.27760443       0.52315062        1 
C      -2.64000719      -1.56088948       0.58859718        6 
C       2.14882775      -1.22707189       0.96635083        6 
O       3.24831209      -1.25630357       0.07028387        8 
H       2.15555041      -2.11363417       1.61712218        1 
H       2.17737043      -0.33152647       1.59218305        1 
C       4.48690443      -1.02114196       0.70865260        6 
H       5.26008265      -1.06917091      -0.05874727        1 
H       4.69615785      -1.78058517       1.47529815        1 
H       4.50695267      -0.02901446       1.17997176        1 
O      -3.59196449      -1.48006700      -0.45980500        8 
H      -2.86181711      -0.84004278       1.37552433        1 
H      -2.63027745      -2.57119534       1.02476298        1 
C      -4.92628247      -1.44889598       0.01103556        6 
H      -5.57415395      -1.38089024      -0.86347932        1 
H      -5.09389298      -0.57673019       0.65550429        1 
H      -5.17665941      -2.36204649       0.57011399        1 
