43
Lattice="0.0 0.0 0.0 0.0 0.0 0.0 0.0 0.0 0.0" Properties=species:S:1:pos:R:3:Z:I:1 pbc="F F F"
C      -0.57043487       0.11658135       0.86409058        6 
C       0.97470233      -0.15605141       0.72225249        6 
C      -1.46928744      -1.10732996       0.94451949        6 
C       1.41433356      -1.38142303      -0.08492855        6 
O      -2.23394791      -1.32229286      -0.14102004        8 
O      -1.47339984      -1.83127830       1.91023611        8 
O       0.48307349      -2.34786522      -0.12399211        8 
O       2.48810037      -1.50074606      -0.62421842        8 
C       0.83086477      -3.54873230      -0.83545456        6 
C      -3.06590622      -2.49220334      -0.09596340        6 
C      -0.78695832       1.30962870      -0.14009289        6 
C      -0.47512062       2.58270294       0.67263399        6 
C       1.03425486       2.37131855       0.95284075        6 
C       1.37980444       1.17743393       0.00928900        6 
O       0.36106430       1.24250886      -1.00867103        8 
H      -0.70023850       0.52169788       1.86950964        1 
H       1.44918982      -0.25223954       1.70027911        1 
H       1.74343146      -3.98327577      -0.42610266        1 
H      -3.77507563      -2.42828700       0.73065701        1 
H      -0.64675259       3.46139311       0.04727663        1 
H      -1.08936743       2.67255458       1.56822215        1 
H       1.62870576       3.24545358       0.68726292        1 
H       1.25110349       2.13467096       1.99529655        1 
H      -0.01123908      -4.22223118      -0.69298817        1 
H       0.97683285      -3.33269686      -1.89489696        1 
H      -2.45485614      -3.38770007       0.02707992        1 
H      -3.59002464      -2.51353874      -1.04950849        1 
C      -2.04612525       1.37856715      -0.97549379        6 
C       2.75180704       1.30424790      -0.62219498        6 
O       3.70129518       1.19183903       0.42415059        8 
H       2.81828865       2.29294257      -1.10098808        1 
H       2.90946439       0.53645434      -1.38039442        1 
C       5.02417162       1.01953879      -0.04834720        6 
H       5.66990470       0.94300507       0.82697939        1 
H       5.34854287       1.87598436      -0.65688476        1 
H       5.11071652       0.10236895      -0.64417724        1 
O      -3.14025370       1.51276878      -0.08260863        8 
H      -2.15067654       0.48044267      -1.58948776        1 
H      -1.97819542       2.25333423      -1.63844711        1 
C      -4.39287143       1.37031094      -0.72110262        6 
H      -5.16048349       1.48797763       0.04429891        1 
H      -4.49148531       0.37797903      -1.18217532        1 
H      -4.53993933       2.13609777      -1.49580639        1 
