43
Lattice="0.0 0.0 0.0 0.0 0.0 0.0 0.0 0.0 0.0" Properties=species:S:1:pos:R:3:Z:I:1 pbc="F F F"
C      -0.77570372       0.17006491       0.93501263        6 
C       0.80736116       0.14490001       0.92744559        6 
C      -1.44815496      -1.17556627       0.73018364        6 
C       1.42552268      -1.21918098       0.67533344        6 
O      -1.49354567      -1.56334788      -0.55929952        8 
O      -1.89261200      -1.83820418       1.63540995        8 
O       1.45259622      -1.56507759      -0.62563311        8 
O       1.84247360      -1.92957869       1.55751447        8 
C       1.98190652      -2.86800199      -0.92130564        6 
C      -2.12175597      -2.83072488      -0.81438508        6 
C      -1.05855760       1.29882069      -0.11452429        6 
C      -0.74613799       2.64536597       0.58570382        6 
C       0.80631427       2.62732493       0.60625570        6 
C       1.11007287       1.28245292      -0.10408938        6 
O       0.02934120       1.17390463      -1.04204708        8 
H      -1.12057908       0.48060311       1.91856501        1 
H       1.17515202       0.42004283       1.91302205        1 
H       1.38703758      -3.64080721      -0.43159779        1 
H      -3.16528279      -2.81106804      -0.49476467        1 
H      -1.12730709       3.47038084      -0.01885568        1 
H      -1.19906220       2.71739992       1.57462362        1 
H       1.22261012       3.45193099       0.02500584        1 
H       1.23267959       2.67536831       1.60818548        1 
H       1.92051994      -2.96580950      -2.00315355        1 
H       3.01639458      -2.94891909      -0.58352652        1 
H      -1.60372609      -3.63061738      -0.28297650        1 
H      -2.05186571      -2.97629080      -1.89038068        1 
C      -2.37415650       1.23916472      -0.86479754        6 
C       2.43352240       1.21795304      -0.83984370        6 
O       3.45012003       1.06391682       0.13623691        8 
H       2.57935326       2.14449554      -1.41367421        1 
H       2.42819438       0.37381354      -1.53637018        1 
C       4.74011008       0.90977204      -0.42344848        6 
H       5.43456226       0.76746912       0.40445658        1 
H       5.03826610       1.79941732      -0.99541677        1 
H       4.78468908       0.03401207      -1.08553614        1 
O      -3.40391945       1.09383177       0.09869166        8 
H      -2.36433703       0.39230989      -1.55809636        1 
H      -2.50813255       2.16437586      -1.44355794        1 
C      -4.68706369       0.94175316      -0.47706342        6 
H      -5.39268401       0.80535299       0.34234096        1 
H      -4.72621789       0.06348976      -1.13635048        1 
H      -4.97473895       1.82995209      -1.05660043        1 
