43
Lattice="0.0 0.0 0.0 0.0 0.0 0.0 0.0 0.0 0.0" Properties=species:S:1:pos:R:3:Z:I:1 pbc="F F F"
C      -0.75080014       0.19195477       0.94448031        6 
C       0.83103878       0.13386886       0.90763122        6 
C      -1.44373783      -1.15290410       0.83754616        6 
C       1.38558772      -1.23546820       0.55191236        6 
O      -1.48317040      -1.63398331      -0.42289650        8 
O      -1.87954642      -1.75359500       1.78780904        8 
O       1.46566796      -1.46412408      -0.77135835        8 
O       1.70604433      -2.04927970       1.38460687        8 
C       1.89163052      -2.78031530      -1.15903792        6 
C      -2.10250366      -2.92171853      -0.58474257        6 
C      -1.04163434       1.28611894      -0.14292411        6 
C      -0.77942184       2.65044051       0.53699108        6 
C       0.76833052       2.62823492       0.65813752        6 
C       1.12608797       1.30673120      -0.07838262        6 
O       0.07005957       1.18293360      -1.04353831        8 
H      -1.06261848       0.55798091       1.92023548        1 
H       1.22938773       0.34115439       1.89758427        1 
H       1.17788177      -3.52686457      -0.80609450        1 
H      -3.15224228      -2.88034538      -0.28862526        1 
H      -1.11437963       3.45505091      -0.12063482        1 
H      -1.29831599       2.75364037       1.49021073        1 
H       1.22341454       3.47552055       0.14281651        1 
H       1.12514736       2.63460437       1.68835082        1 
H       1.92002403      -2.76592698      -2.24662037        1 
H       2.87662790      -3.00599627      -0.74810762        1 
H      -1.59150495      -3.67075082       0.02185795        1 
H      -2.01210292      -3.15491602      -1.64373482        1 
C      -2.33687963       1.16545344      -0.91869193        6 
C       2.47096411       1.30106079      -0.77951454        6 
O       3.46318371       1.10868009       0.21537018        8 
H       2.61933397       2.25964774      -1.29725084        1 
H       2.49911697       0.49704951      -1.52128028        1 
C       4.77081299       1.01387107      -0.31593032        6 
H       5.44775817       0.85055220       0.52260453        1 
H       5.05984612       1.93683767      -0.83761152        1 
H       4.85540818       0.17162523      -1.01643868        1 
O      -3.38389387       1.03063371       0.02798234        8 
H      -2.29019255       0.29196500      -1.57697468        1 
H      -2.48104028       2.06399203      -1.53563580        1 
C      -4.65253227       0.84278496      -0.56881730        6 
H      -5.37371574       0.72508620       0.23994713        1 
H      -4.66768169      -0.05734700      -1.19899398        1 
H      -4.93849158       1.70745929      -1.18368098        1 
