43
Lattice="0.0 0.0 0.0 0.0 0.0 0.0 0.0 0.0 0.0" Properties=species:S:1:pos:R:3:Z:I:1 pbc="F F F"
C      -0.65532882       0.13797275      -0.68389471        6 
C       0.91264301       0.06912587      -0.69917586        6 
C      -1.25075230       1.26439196       0.14118378        6 
C       1.61568321       1.31759367      -0.18188818        6 
O      -2.54591342       1.45160394      -0.19565469        8 
O      -0.68568596       1.93467468       0.96857996        8 
O       1.37445424       2.33178669      -1.04789874        8 
O       2.31900251       1.43096821       0.78696739        8 
C       1.86631962       3.62200377      -0.64764992        6 
C      -3.24380389       2.47966030       0.52825479        6 
C      -0.98892736      -1.26718213      -0.05258261        6 
C      -0.64730812      -2.35863781      -1.09887471        6 
C       0.89941098      -2.41127874      -0.99547551        6 
C       1.18129784      -1.28612450       0.02990362        6 
O       0.05440906      -1.40397354       0.92010757        8 
H      -1.07430093       0.21420024      -1.68553708        1 
H       1.23799901      -0.01094435      -1.73745157        1 
H       2.95204592       3.60358644      -0.54202535        1 
H      -2.75258378       3.44438851       0.39349812        1 
H      -1.10451347      -3.30546763      -0.80779847        1 
H      -1.01918534      -2.10388366      -2.09109530        1 
H       1.23782026      -3.36513380      -0.58683644        1 
H       1.41464681      -2.25046424      -1.94219858        1 
H       1.57122754       4.30494366      -1.44178148        1 
H       1.41276879       3.91326244       0.30101010        1 
H      -3.27783721       2.24257094       1.59329660        1 
H      -4.24713203       2.49788517       0.10818633        1 
C      -2.32983959      -1.44937046       0.62929624        6 
C       2.47035608      -1.44536733       0.80754419        6 
O       3.53502933      -1.26905657      -0.11551243        8 
H       2.50143739      -2.45338250       1.24621258        1 
H       2.51874740      -0.70527185       1.60812477        1 
C       4.77876272      -1.02789736       0.51734288        6 
H       5.52015998      -0.89951355      -0.27217461        1 
H       5.07787731      -1.87428507       1.15186545        1 
H       4.73512240      -0.11753645       1.12764168        1 
O      -3.32736166      -1.50588142      -0.37174873        8 
H      -2.52575556      -0.63197420       1.33487525        1 
H      -2.29805461      -2.38620438       1.20434047        1 
C      -4.63900229      -1.46478431       0.15237690        6 
H      -5.32511491      -1.51714544      -0.69312877        1 
H      -4.81675247      -0.53043593       0.70288720        1 
H      -4.83189316      -2.31302269       0.82449146        1 
