43
Lattice="0.0 0.0 0.0 0.0 0.0 0.0 0.0 0.0 0.0" Properties=species:S:1:pos:R:3:Z:I:1 pbc="F F F"
C      -0.84129167       0.09455960      -0.71477114        6 
C       0.70920677       0.16874734      -0.64518151        6 
C      -1.60287118       1.39159095      -0.50468740        6 
C       1.20754821       1.16845790       0.38662708        6 
O      -0.88003659       2.43537892      -0.97090955        8 
O      -2.76340829       1.49033793      -0.19302744        8 
O       2.50796470       1.46763751       0.17271802        8 
O       0.55679186       1.65540046       1.27693178        8 
C       3.09680241       2.39899679       1.09720152        6 
C      -1.52167029       3.72042064      -0.91937944        6 
C      -1.16871259      -1.19625976       0.11877701        6 
C      -1.01749791      -2.38183470      -0.85738629        6 
C       0.50573558      -2.31963825      -1.15280946        6 
C       0.99265279      -1.28009505      -0.10380321        6 
O       0.00836218      -1.36778918       0.93691160        8 
H      -1.10440299      -0.12268054      -1.75601109        1 
H       1.19255742       0.35770259      -1.60038992        1 
H       3.04731917       2.01182222       2.11645554        1 
H      -1.74571934       3.98692859       0.11463868        1 
H      -1.28798497      -3.30684099      -0.34516083        1 
H      -1.64859841      -2.28587920      -1.74048272        1 
H       0.99631450      -3.27961427      -0.98777513        1 
H       0.73790452      -2.00267311      -2.17028771        1 
H       4.13090620       2.50930372       0.77781187        1 
H       2.57750434       3.35767628       1.05483685        1 
H      -2.44523095       3.71270680      -1.50018509        1 
H      -0.80515119       4.41901020      -1.34632425        1 
C      -2.40688037      -1.22056949       0.98864969        6 
C       2.36656362      -1.56339200       0.46615399        6 
O       3.29068246      -1.51294239      -0.60439762        8 
H       2.35698210      -2.56024485       0.93055961        1 
H       2.62810603      -0.83481922       1.24344689        1 
C       4.63718188      -1.54809147      -0.17530148        6 
H       5.26046103      -1.50268932      -1.06853332        1 
H       4.86227183      -2.47412221       0.37254651        1 
H       4.86831590      -0.68901796       0.46945751        1 
O      -3.52108155      -1.43252098       0.13854985        8 
H      -2.50773021      -0.28408677       1.54497666        1 
H      -2.30720462      -2.04574143       1.70883005        1 
C      -4.75077601      -1.05128700       0.72712874        6 
H      -5.53209197      -1.26080695      -0.00425301        1 
H      -4.75247370       0.01909851       0.96291842        1 
H      -4.95523739      -1.62787046       1.64103520        1 
