43
Lattice="0.0 0.0 0.0 0.0 0.0 0.0 0.0 0.0 0.0" Properties=species:S:1:pos:R:3:Z:I:1 pbc="F F F"
C      -0.89670226       0.07797817      -0.67540926        6 
C       0.67304838       0.18178723      -0.68626373        6 
C      -1.63863010       1.26664822      -0.07562983        6 
C       1.26648855       1.39399802       0.01773274        6 
O      -1.75097447       2.23211979      -1.01589560        8 
O      -2.11112558       1.35636402       1.02778909        8 
O       2.60551112       1.42823675      -0.15548733        8 
O       0.66474561       2.26706521       0.59054012        8 
C       3.28567474       2.55539290       0.42525702        6 
C      -2.32297623       3.47146569      -0.56516171        6 
C      -1.11436035      -1.29700867       0.03309835        6 
C      -0.78986189      -2.40069107      -1.00334032        6 
C       0.75578976      -2.31140457      -1.07970928        6 
C       1.05443264      -1.20425132      -0.03586783        6 
O       0.00828543      -1.37639523       0.92948440        8 
H      -1.24568668       0.01847612      -1.70561988        1 
H       1.05745533       0.22262394      -1.70576895        1 
H       3.14927309       2.56810234       1.50802029        1 
H      -1.71647207       3.88685908       0.24089371        1 
H      -1.11280943      -3.36909088      -0.61684817        1 
H      -1.29290930      -2.23548971      -1.95580603        1 
H       1.22890379      -3.24456662      -0.77086697        1 
H       1.14063714      -2.05799548      -2.06717642        1 
H       4.33491929       2.42103714       0.17166777        1 
H       2.90581732       3.48846310       0.00643913        1 
H      -3.34370098       3.31748190      -0.21115247        1 
H      -2.31505161       4.12851199      -1.43248592        1 
C      -2.40338736      -1.51114570       0.79946171        6 
C       2.39093436      -1.35914943       0.66115527        6 
O       3.39968113      -1.43466721      -0.32779032        8 
H       2.35558078      -2.28545932       1.25294469        1 
H       2.57752591      -0.52710514       1.34976316        1 
C       4.70359400      -1.35914607       0.20970107        6 
H       5.40125322      -1.42809347      -0.62523055        1 
H       4.90027524      -2.18313950       0.91048651        1 
H       4.86159445      -0.40613833       0.73354076        1 
O      -3.46786003      -1.32322557      -0.12207194        8 
H      -2.47144177      -0.80121623       1.62586264        1 
H      -2.41456737      -2.53535774       1.19999394        1 
C      -4.73705747      -1.29615906       0.50338635        6 
H      -5.47873468      -1.14168425      -0.28097643        1 
H      -4.80111117      -0.47642195       1.23045831        1 
H      -4.95173323      -2.24473919       1.01593272        1 
