43
Lattice="0.0 0.0 0.0 0.0 0.0 0.0 0.0 0.0 0.0" Properties=species:S:1:pos:R:3:Z:I:1 pbc="F F F"
C      -0.68899082       0.06479727       0.88859540        6 
C       0.88305302       0.07948594       0.72833610        6 
C      -1.36562558      -1.25498242       0.57798687        6 
C       1.44411367      -1.15519479       0.03918757        6 
O      -1.29496517      -1.56708957      -0.73481766        8 
O      -1.87529267      -1.97023698       1.40310803        8 
O       1.31390423      -2.21432022       0.87104739        8 
O       1.94736599      -1.23690174      -1.05154815        8 
C       1.75977372      -3.48264152       0.36116377        6 
C      -1.86678488      -2.82856014      -1.11925892        6 
C      -1.08641227       1.30934489       0.01047481        6 
C      -0.84428783       2.55447141       0.89235801        6 
C       0.70707051       2.57371453       0.95053923        6 
C       1.07956259       1.42175137      -0.02909628        6 
O      -0.02395369       1.40940617      -0.94762223        8 
H      -0.94881527       0.25115141       1.92801152        1 
H       1.34942320       0.10652446       1.71255968        1 
H       2.83854442      -3.46903265       0.19675263        1 
H      -2.94490275      -2.82685488      -0.94835581        1 
H      -1.23446401       3.43818862       0.38363570        1 
H      -1.32758822       2.47980040       1.86650831        1 
H       1.11312744       3.51868244       0.58690861        1 
H       1.10721094       2.40465571       1.95084666        1 
H       1.49737000      -4.21036610       1.12575760        1 
H       1.25839037      -3.71251021      -0.58018502        1 
H      -1.41913914      -3.64170019      -0.54610361        1 
H      -1.64574520      -2.93524534      -2.17898407        1 
C      -2.41136826       1.25005608      -0.72082220        6 
C       2.38022705       1.62367721      -0.78121743        6 
O       3.43392094       1.42121229       0.14933471        8 
H       2.40968250       2.64715256      -1.18261049        1 
H       2.44667747       0.91320103      -1.60754741        1 
C       4.71191732       1.43742919      -0.45810112        6 
H       5.44561416       1.26951855       0.33087828        1 
H       4.91633134       2.40597679      -0.93608407        1 
H       4.80154581       0.64402355      -1.21167502        1 
O      -3.41509674       0.94836355       0.23310240        8 
H      -2.36695335       0.47974985      -1.49854615        1 
H      -2.60645854       2.21896389      -1.20244381        1 
C      -4.68380786       0.72078613      -0.34976540        6 
H      -5.37402848       0.49120806       0.46186153        1 
H      -4.65390136      -0.12746630      -1.04799681        1 
H      -5.04333330       1.60792027      -0.88945829        1 
