43
Lattice="0.0 0.0 0.0 0.0 0.0 0.0 0.0 0.0 0.0" Properties=species:S:1:pos:R:3:Z:I:1 pbc="F F F"
C      -0.69708937       0.20180054      -0.64540600        6 
C       0.85332100       0.06978110      -0.71431246        6 
C      -1.14725430       1.23612812       0.37728301        6 
C       1.63514846       1.34935360      -0.47058728        6 
O      -2.47759198       1.44945555       0.28896396        8 
O      -0.43532926       1.84017216       1.14062886        8 
O       1.05028920       2.35824308      -1.16143183        8 
O       2.70448681       1.45987830       0.07193037        8 
C       1.68188606       3.64374269      -1.05087441        6 
C      -3.02289806       2.42214221       1.19845062        6 
C      -1.03654738      -1.23822883      -0.11528546        6 
C      -0.57664039      -2.28608715      -1.17002413        6 
C       0.93923879      -2.40668906      -0.86183957        6 
C       1.12619359      -1.23097742       0.11904150        6 
O      -0.06102305      -1.36176835       0.93190524        8 
H      -1.17176322       0.41380245      -1.60087929        1 
H       1.11213076      -0.14660790      -1.75557514        1 
H       2.71726414       3.59497149      -1.39136950        1 
H      -2.52939890       3.38603246       1.06791216        1 
H      -1.10481715      -3.22846678      -1.02074262        1 
H      -0.78737232      -1.95066699      -2.18632110        1 
H       1.17016049      -3.34273316      -0.34977064        1 
H       1.58152618      -2.33144122      -1.73886205        1 
H       1.10001208       4.30886191      -1.68582403        1 
H       1.65603987       3.98436333      -0.01438705        1 
H      -2.89672121       2.09278011       2.23140625        1 
H      -4.07866140       2.49348492       0.94580216        1 
C      -2.41955719      -1.50266337       0.44363112        6 
C       2.35692471      -1.30516709       0.99572494        6 
O       3.47530294      -1.45861940       0.13781520        8 
H       2.25670191      -2.17511818       1.66125849        1 
H       2.45010813      -0.40310666       1.60595147        1 
C       4.70215373      -1.12044577       0.75859363        6 
H       5.48641002      -1.26727364       0.01512668        1 
H       4.90663852      -1.76741381       1.62399255        1 
H       4.69787178      -0.07263809       1.07987669        1 
O      -3.33728133      -1.42508200      -0.63090454        8 
H      -2.67681760      -0.78338332       1.22911291        1 
H      -2.42472740      -2.50776351       0.89052233        1 
C      -4.68512187      -1.49562521      -0.21101992        6 
H      -5.30485925      -1.42784953      -1.10533263        1 
H      -4.93377110      -0.66492033       0.46380345        1 
H      -4.89842770      -2.44428479       0.30193787        1 
