43
Lattice="0.0 0.0 0.0 0.0 0.0 0.0 0.0 0.0 0.0" Properties=species:S:1:pos:R:3:Z:I:1 pbc="F F F"
C      -0.74335621       0.13131386       0.87068426        6 
C       0.81789488      -0.08124994       0.77855632        6 
C      -1.57986415      -1.13359341       0.96200167        6 
C       1.19496646      -1.43458214       0.16611384        6 
O      -2.05238160      -1.55946872      -0.22720610        8 
O      -1.72382503      -1.74262281       1.99089712        8 
O       2.14160192      -1.37763060      -0.78616311        8 
O       0.71334595      -2.47921053       0.53059789        8 
C       2.53868046      -2.63896976      -1.35562645        6 
C      -2.70795278      -2.84046219      -0.21036410        6 
C      -0.98289394       1.24620898      -0.21181743        6 
C      -0.74228790       2.57999011       0.52175201        6 
C       0.76545268       2.44116102       0.85285024        6 
C       1.18249152       1.20854120      -0.01657415        6 
O       0.18405524       1.17428636      -1.05470283        8 
H      -0.93007288       0.58096735       1.84593907        1 
H       1.25762119      -0.08655586       1.77668796        1 
H       1.68049610      -3.14137836      -1.80351750        1 
H      -3.59032972      -2.81000913       0.43068748        1 
H      -0.92540406       3.40862201      -0.16555233        1 
H      -1.38301191       2.70441851       1.39456055        1 
H       1.33415473       3.32355996       0.55907393        1 
H       0.95700468       2.26785427       1.91292457        1 
H       3.27736467      -2.39077158      -2.11499413        1 
H       2.97386629      -3.28270131      -0.59011771        1 
H      -2.01989352      -3.60409524       0.15412633        1 
H      -2.99119078      -3.03489385      -1.24313638        1 
C      -2.23246149       1.18102155      -1.06134607        6 
C       2.56379115       1.36448831      -0.62643443        6 
O       3.50583113       1.18140593       0.41775799        8 
H       2.64623553       2.37763146      -1.04707198        1 
H       2.72029869       0.64202450      -1.42788756        1 
C       4.84411367       1.22020815      -0.03603632        6 
H       5.48455168       1.06417329       0.83238052        1 
H       5.08667251       2.19119556      -0.49061480        1 
H       5.03631270       0.42839607      -0.77330077        1 
O      -3.34129950       1.22291160      -0.17759216        8 
H      -2.23860047       0.26086214      -1.65132337        1 
H      -2.24818184       2.04190487      -1.74575947        1 
C      -4.57068109       0.94740939      -0.81944961        6 
H      -5.35009016       1.00112803      -0.05904697        1 
H      -4.56725597      -0.05712516      -1.26382890        1 
H      -4.78715404       1.68236240      -1.60757087        1 
