43
Lattice="0.0 0.0 0.0 0.0 0.0 0.0 0.0 0.0 0.0" Properties=species:S:1:pos:R:3:Z:I:1 pbc="F F F"
C      -0.65221799      -0.00685738       0.85299073        6 
C       0.90695802      -0.13831727       0.84328396        6 
C      -1.39369139      -1.32617099       0.69849224        6 
C       1.48555360      -1.40624257       0.23579141        6 
O      -2.69308450      -1.15420116       0.39507572        8 
O      -0.91031185      -2.41114839       0.91408402        8 
O       0.98590026      -1.66944758      -0.98909403        8 
O       2.36277363      -2.05482955       0.75024585        8 
C       1.42590931      -2.89661384      -1.59185639        6 
C      -3.49444437      -2.34955675       0.34579373        6 
C      -0.88000417       1.21383143      -0.11991613        6 
C      -0.56105856       2.49141674       0.69579005        6 
C       0.98111905       2.38636538       0.83873516        6 
C       1.28725743       1.12237345      -0.00435708        6 
O       0.25341787       1.14025920      -0.99922208        8 
H      -0.96768356       0.31015312       1.85251664        1 
H       1.32733498      -0.07937888       1.84382427        1 
H       1.12147960      -3.74362253      -0.97463593        1 
H      -3.48070082      -2.85771099       1.31080656        1 
H      -0.84819759       3.36968099       0.11529605        1 
H      -1.09695748       2.52957950       1.64362210        1 
H       1.48640355       3.25235295       0.40809563        1 
H       1.32285899       2.28157387       1.86849077        1 
H       0.93769100      -2.93445018      -2.56365304        1 
H       2.51102024      -2.90477422      -1.70725507        1 
H      -3.12209432      -3.02860030      -0.42273429        1 
H      -4.50000047      -2.01140782       0.10503502        1 
C      -2.13829930       1.30681276      -0.95780398        6 
C       2.64838278       1.10832310      -0.66894779        6 
O       3.61839616       1.15538210       0.36024653        8 
H       2.73398503       1.98088089      -1.33311882        1 
H       2.76882599       0.20720474      -1.28305012        1 
C       4.92872602       0.87186399      -0.09348796        6 
H       5.58763560       0.93737611       0.77217654        1 
H       5.25740262       1.59648717      -0.85204549        1 
H       4.99004043      -0.14028592      -0.51473101        1 
O      -3.20727178       1.68364505      -0.10932659        8 
H      -2.34783742       0.35544757      -1.45751023        1 
H      -1.97174880       2.07159659      -1.73020951        1 
C      -4.46803383       1.58709736      -0.73771047        6 
H      -5.21691055       1.89801646      -0.00864789        1 
H      -4.67686947       0.55500897      -1.05177126        1 
H      -4.53238937       2.24262705      -1.61814860        1 
