43
Lattice="0.0 0.0 0.0 0.0 0.0 0.0 0.0 0.0 0.0" Properties=species:S:1:pos:R:3:Z:I:1 pbc="F F F"
C      -0.67450748      -0.18123665       0.66303920        6 
C       0.89127658      -0.04359957       0.69206348        6 
C      -1.20216445      -1.34649539      -0.16432723        6 
C       1.67342303      -1.26342012       0.22400839        6 
O      -2.55085492      -1.38709505      -0.12446687        8 
O      -0.54546409      -2.19467422      -0.71443720        8 
O       1.59298184      -2.21854739       1.18063352        8 
O       2.33254206      -1.38358718      -0.77567257        8 
C       2.16666106      -3.49079505       0.83709898        6 
C      -3.17197522      -2.48304131      -0.82026002        6 
C      -1.05439921       1.23004041       0.07921010        6 
C      -0.69788829       2.30410700       1.14458672        6 
C       0.83582639       2.43302742       0.96162456        6 
C       1.11322260       1.30901751      -0.06124646        6 
O      -0.03978461       1.40085067      -0.92137890        8 
H      -1.09201252      -0.30613888       1.66249775        1 
H       1.19509330       0.07697365       1.73268282        1 
H       3.23260648      -3.38879847       0.62859578        1 
H      -2.80731001      -3.43679782      -0.43663115        1 
H      -1.21333987       3.23778373       0.91649916        1 
H      -1.00157823       1.99926908       2.14618385        1 
H       1.10247963       3.39521291       0.52008761        1 
H       1.40902168       2.31258450       1.88063440        1 
H       2.00616470      -4.12717524       1.70515130        1 
H       1.66053901      -3.89864589      -0.03941905        1 
H      -2.96318661      -2.42405713      -1.88989841        1 
H      -4.23812606      -2.37616463      -0.63194041        1 
C      -2.41364133       1.44219869      -0.55723040        6 
C       2.37826660       1.48300012      -0.87429264        6 
O       3.46964302       1.34389426       0.02374450        8 
H       2.37651379       2.48421386      -1.32909920        1 
H       2.42177112       0.73090206      -1.66398554        1 
C       4.69647413       1.07688570      -0.63213887        6 
H       5.45770969       0.97764973       0.14261844        1 
H       4.97959692       1.89818125      -1.30569679        1 
H       4.63566507       0.14379348      -1.20506919        1 
O      -3.38515718       1.42095395       0.47135990        8 
H      -2.62381611       0.67727631      -1.31168599        1 
H      -2.40040730       2.42083899      -1.05906432        1 
C      -4.70913075       1.42135568      -0.02128903        6 
H      -5.37428193       1.39617154       0.84217784        1 
H      -4.89899885       0.53918903      -0.64829285        1 
H      -4.92068955       2.32530732      -0.61038711        1 
