43
Lattice="0.0 0.0 0.0 0.0 0.0 0.0 0.0 0.0 0.0" Properties=species:S:1:pos:R:3:Z:I:1 pbc="F F F"
C      -0.72208058      -0.04487330       0.83170820        6 
C       0.82745898      -0.17329959       0.72534229        6 
C      -1.41511697      -1.39852529       0.79371579        6 
C       1.25663450      -1.29753750      -0.20443050        6 
O      -2.58390656      -1.41670852       0.13699866        8 
O      -0.96041899      -2.36030889       1.36704698        8 
O       2.55129139      -1.62131506      -0.00050047        8 
O       0.55622576      -1.85506060      -1.01219717        8 
C       3.06359545      -2.69159345      -0.81456123        6 
C      -3.26781449      -2.68373045       0.11394957        6 
C      -1.02460950       1.17773611      -0.11285261        6 
C      -0.79560277       2.43759945       0.75248714        6 
C       0.73655274       2.35362487       0.99101761        6 
C       1.14423333       1.19787327       0.03465208        6 
O       0.12735007       1.22742019      -0.97825935        8 
H      -0.94554253       0.28072769       1.85301346        1 
H       1.32952139      -0.28304219       1.68331374        1 
H       3.01562130      -2.42604977      -1.87226688        1 
H      -3.52258656      -2.99850683       1.12685707        1 
H      -1.06118835       3.32473945       0.17438824        1 
H      -1.39197346       2.43647864       1.66426455        1 
H       1.24563287       3.27524575       0.70616966        1 
H       1.00646752       2.13551184       2.02481366        1 
H       4.09595765      -2.82616156      -0.49898663        1 
H       2.48809054      -3.60332814      -0.64826973        1 
H      -2.64018082      -3.44262086      -0.35445201        1 
H      -4.16905354      -2.51364080      -0.47153472        1 
C      -2.27688721       1.20299233      -0.96038331        6 
C       2.50633867       1.35956924      -0.60723596        6 
O       3.46831902       1.36641927       0.43025054        8 
H       2.52466281       2.30610150      -1.16702218        1 
H       2.70092892       0.54621164      -1.31667492        1 
C       4.79617312       1.25978179      -0.04287783        6 
H       5.44943159       1.26869769       0.82980335        1 
H       5.06068351       2.10208171      -0.69783750        1 
H       4.94423624       0.32093020      -0.59370596        1 
O      -3.38009156       1.41509730      -0.09546633        8 
H      -2.38514513       0.26706510      -1.51538086        1 
H      -2.18732730       2.03001108      -1.67993843        1 
C      -4.62432846       1.22649112      -0.73619325        6 
H      -5.40089861       1.40040510       0.00938256        1 
H      -4.71927568       0.20324439      -1.12412299        1 
H      -4.76234420       1.93339640      -1.56711913        1 
