43
Lattice="0.0 0.0 0.0 0.0 0.0 0.0 0.0 0.0 0.0" Properties=species:S:1:pos:R:3:Z:I:1 pbc="F F F"
C      -0.89707184       0.13504138      -0.84673467        6 
C       0.66876479       0.03318331      -0.84653744        6 
C      -1.49733698       1.42093125      -0.29646501        6 
C       1.39529227       1.35450740      -0.63157161        6 
O      -1.13419479       1.65769659       0.98099677        8 
O      -2.26486151       2.11784820      -0.91183155        8 
O       2.70064548       1.18078524      -0.35370029        8 
O       0.90308174       2.44433229      -0.79413694        8 
C       3.49040670       2.38177015      -0.26608158        6 
C      -1.58257751       2.90692763       1.53051474        6 
C      -1.26471616      -1.12386996       0.00628823        6 
C      -0.95661099      -2.38557830      -0.83946293        6 
C       0.58759014      -2.47102138      -0.72205739        6 
C       0.90329595      -1.20131796       0.10788767        6 
O      -0.22475957      -1.13834273       0.99457712        8 
H      -1.29828149       0.04912793      -1.85364478        1 
H       1.00484664      -0.25287564      -1.84807618        1 
H       3.12182212       3.02472190       0.53454231        1 
H      -2.67262050       2.96225942       1.52873773        1 
H      -1.44128019      -3.25631964      -0.39446774        1 
H      -1.31928336      -2.29028262      -1.86271126        1 
H       0.89513352      -3.35389710      -0.15935917        1 
H       1.11046728      -2.48814016      -1.67766872        1 
H       4.50287519       2.04530015      -0.05426820        1 
H       3.45611786       2.92868146      -1.20923025        1 
H      -1.17846432       3.73472230       0.94562762        1 
H      -1.19930320       2.93076748       2.54862612        1 
C      -2.62266354      -1.13032246       0.67809296        6 
C       2.16472568      -1.30605373       0.94029044        6 
O       3.23291849      -1.66166184       0.08193567        8 
H       2.00217388      -2.08702402       1.69703840        1 
H       2.37228382      -0.36497901       1.45951923        1 
C       4.49611158      -1.55666493       0.70375374        6 
H       5.24424104      -1.85122409      -0.03279346        1 
H       4.57382934      -2.22011042       1.57720109        1 
H       4.69458339      -0.52549087       1.02721401        1 
O      -3.59824347      -1.17653351      -0.34707763        8 
H      -2.75108089      -0.23955649       1.30420948        1 
H      -2.69355586      -2.01434939       1.32892597        1 
C      -4.91901637      -1.02315069       0.13608790        6 
H      -5.58307800      -1.06830730      -0.72694575        1 
H      -5.04837727      -0.05462788       0.63790487        1 
H      -5.18546391      -1.82582405       0.83845115        1 
