43
Lattice="0.0 0.0 0.0 0.0 0.0 0.0 0.0 0.0 0.0" Properties=species:S:1:pos:R:3:Z:I:1 pbc="F F F"
C      -0.77709184      -0.01548102      -0.78284251        6 
C       0.78443176       0.09485060      -0.78941068        6 
C      -1.57933561       1.25190389      -0.53248737        6 
C       1.38261309       1.30267528      -0.08763005        6 
O      -0.87311465       2.34828908      -0.87914824        8 
O      -2.75125872       1.29552898      -0.24931158        8 
O       0.86813929       1.48829349       1.14643339        8 
O       2.25861405       1.99053681      -0.55127495        8 
C       1.34946336       2.63822456       1.85855797        6 
C      -1.56921294       3.60551296      -0.82811669        6 
C      -1.01614679      -1.28344134       0.11456135        6 
C      -0.74564418      -2.51803636      -0.77855595        6 
C       0.79387060      -2.43039724      -0.96041207        6 
C       1.14916642      -1.23273998      -0.04049955        6 
O       0.13691561      -1.29290980       0.97420694        8 
H      -1.10113127      -0.26480108      -1.79901506        1 
H       1.19288242       0.10794074      -1.79648193        1 
H       1.11413603       3.55027630       1.30616537        1 
H      -1.89609307       3.81667386       0.19135674        1 
H      -1.03216200      -3.42107609      -0.23713721        1 
H      -1.31053910      -2.49375370      -1.70965535        1 
H       1.29473203      -3.33236524      -0.60532186        1 
H       1.10888385      -2.26182188      -1.99037675        1 
H       0.83294808       2.62515306       2.81591972        1 
H       2.42936062       2.58003387       2.00389159        1 
H      -2.43805669       3.58707193      -1.48755861        1 
H      -0.84643350       4.34649527      -1.16212516        1 
C      -2.27643567      -1.36800391       0.94930101        6 
C       2.52536452      -1.29706472       0.58873687        6 
O       3.46839303      -1.30978155      -0.46637006        8 
H       2.60103725      -2.20949161       1.19809660        1 
H       2.68954073      -0.43731815       1.25113895        1 
C       4.80315602      -1.15095575      -0.02406931        6 
H       5.43807359      -1.17449007      -0.90965255        1 
H       5.10132857      -1.96290455       0.65427553        1 
H       4.93825275      -0.18918074       0.48863963        1 
O      -3.35066588      -1.66119210       0.07397535        8 
H      -2.45036381      -0.43125883       1.48754625        1 
H      -2.14813092      -2.17305242       1.68751275        1 
C      -4.61837153      -1.37359533       0.63403659        6 
H      -5.36618999      -1.65723576      -0.10720329        1 
H      -4.71271719      -0.30337212       0.85293163        1 
H      -4.79231794      -1.95109491       1.55363321        1 
