43
Lattice="0.0 0.0 0.0 0.0 0.0 0.0 0.0 0.0 0.0" Properties=species:S:1:pos:R:3:Z:I:1 pbc="F F F"
C      -0.81942791       0.13841998       0.89854507        6 
C       0.76226534       0.19764443       0.94343838        6 
C      -1.34592821      -1.23725493       0.52153642        6 
C       1.44577302      -1.15215851       0.85018689        6 
O      -1.57749620      -1.40130958      -0.79250346        8 
O      -1.50124085      -2.11685321       1.33450973        8 
O       1.46098205      -1.64757920      -0.40729425        8 
O       1.86384374      -1.75743311       1.80412376        8 
C       2.01724944      -2.96587823      -0.55421166        6 
C      -1.97819546      -2.71966969      -1.20090506        6 
C      -1.10997128       1.32767430      -0.06451103        6 
C      -0.72715418       2.63552930       0.68700131        6 
C       0.81771929       2.65246695       0.53485878        6 
C       1.05759988       1.28665019      -0.14806726        6 
O      -0.06284043       1.20045377      -1.04034811        8 
H      -1.22116651       0.32432955       1.89197410        1 
H       1.06963991       0.57021901       1.91815383        1 
H       1.47209697      -3.67870727       0.06629634        1 
H      -2.90420328      -3.01379856      -0.70478677        1 
H      -1.18841807       3.49475264       0.19780992        1 
H      -1.06262383       2.62453060       1.72461992        1 
H       1.14173532       3.45434258      -0.13160558        1 
H       1.35663254       2.75411414       1.47700563        1 
H       1.90969482      -3.20920620      -1.60938064        1 
H       3.06937016      -2.97177336      -0.26415906        1 
H      -1.19806513      -3.44339497      -0.95905219        1 
H      -2.11953873      -2.65762301      -2.27794721        1 
C      -2.46215503       1.35595813      -0.75291670        6 
C       2.34436063       1.14488206      -0.93347787        6 
O       3.39623612       0.99863832       0.00609597        8 
H       2.49700908       2.03838431      -1.55565429        1 
H       2.27947388       0.26876381      -1.58683733        1 
C       4.65559310       0.77716904      -0.59874514        6 
H       5.38095503       0.65455528       0.20555429        1 
H       4.95418583       1.62803206      -1.22671245        1 
H       4.64653855      -0.13090132      -1.21749438        1 
O      -3.44702300       1.12547034       0.24190055        8 
H      -2.50008223       0.58480454      -1.52727335        1 
H      -2.61262125       2.33661117      -1.22681862        1 
C      -4.75864300       1.05681529      -0.28345844        6 
H      -5.43153299       0.86879938       0.55326853        1 
H      -4.85266694       0.23988669      -1.01221904        1 
H      -5.04562082       1.99893426      -0.77095122        1 
