43
Lattice="0.0 0.0 0.0 0.0 0.0 0.0 0.0 0.0 0.0" Properties=species:S:1:pos:R:3:Z:I:1 pbc="F F F"
C      -0.68239432       0.07771338       0.88782800        6 
C       0.88958808       0.07896876       0.72320497        6 
C      -1.36370094      -1.24567403       0.60493589        6 
C       1.43637763      -1.15398543       0.01867055        6 
O      -1.37102242      -1.54629850      -0.71254210        8 
O      -1.79723974      -1.98162079       1.45493787        8 
O       1.30166447      -2.22066425       0.83860092        8 
O       1.93550157      -1.22709182      -1.07492451        8 
C       1.73451648      -3.48726017       0.31351703        6 
C      -1.94694539      -2.81398812      -1.06945327        6 
C      -1.07481558       1.31992002       0.00653345        6 
C      -0.83007769       2.56523594       0.88770047        6 
C       0.72073010       2.57381415       0.95589066        6 
C       1.09188919       1.42433731      -0.02773322        6 
O      -0.00951298       1.41764234      -0.94912364        8 
H      -0.93172144       0.27571589       1.92789388        1 
H       1.36034731       0.09442775       1.70549564        1 
H       2.81408173      -3.48414573       0.15359196        1 
H      -3.01046161      -2.83174891      -0.82460117        1 
H      -1.21000203       3.45042687       0.37376953        1 
H      -1.32050258       2.49661013       1.85885546        1 
H       1.13546880       3.51810716       0.60048890        1 
H       1.11361700       2.39614243       1.95762714        1 
H       1.46054600      -4.22160661       1.06765375        1 
H       1.23441664      -3.69883063      -0.63280336        1 
H      -1.44712366      -3.62442789      -0.53703141        1 
H      -1.79764934      -2.90786584      -2.14295536        1 
C      -2.39982133       1.26151976      -0.72549274        6 
C       2.39497503       1.62612466      -0.77571381        6 
O       3.44575918       1.41743625       0.15690281        8 
H       2.42780127       2.65130661      -1.17249621        1 
H       2.46210093       0.91905022      -1.60482896        1 
C       4.72583679       1.44281142      -0.44567190        6 
H       5.45719099       1.26921751       0.34426295        1 
H       4.92935385       2.41645896      -0.91358315        1 
H       4.82051555       0.65697906      -1.20657089        1 
O      -3.39595862       0.90703624       0.21916391        8 
H      -2.34230550       0.51780974      -1.52728654        1 
H      -2.61658164       2.24199183      -1.17288089        1 
C      -4.66258435       0.68200631      -0.36930534        6 
H      -5.34415946       0.39900278       0.43276966        1 
H      -4.61817502      -0.12997453      -1.10877369        1 
H      -5.04268290       1.58675936      -0.86368406        1 
