43
Lattice="0.0 0.0 0.0 0.0 0.0 0.0 0.0 0.0 0.0" Properties=species:S:1:pos:R:3:Z:I:1 pbc="F F F"
C      -0.66054226       0.05561485       0.79292632        6 
C       0.84758294      -0.28213635       0.70500965        6 
C      -1.69474184      -1.05492136       0.85187966        6 
C       1.26401741      -1.36582826      -0.27976433        6 
O      -1.13921839      -2.27719980       0.97862635        8 
O      -2.87675253      -0.86214942       1.01248678        8 
O       0.31045857      -1.67332823      -1.17610857        8 
O       2.39613589      -1.78567996      -0.36108943        8 
C       0.68907098      -2.58396102      -2.21987849        6 
C      -2.04618156      -3.36351281       1.23593503        6 
C      -0.81641074       1.28168396      -0.18916763        6 
C      -0.52545502       2.52992656       0.66570409        6 
C       0.95897512       2.26107613       1.04055138        6 
C       1.33207015       1.08895320       0.08093770        6 
O       0.38203630       1.22364631      -0.98900283        8 
H      -0.81270533       0.46609828       1.79774963        1 
H       1.31685784      -0.48911815       1.66381245        1 
H       1.00791937      -3.53829543      -1.79773680        1 
H      -2.75603711      -3.46919682       0.41420148        1 
H      -0.62574739       3.42452308       0.04890283        1 
H      -1.19733955       2.62130534       1.51806526        1 
H       1.59504514       3.12398645       0.84390420        1 
H       1.10085358       1.98576605       2.08643383        1 
H      -0.20341751      -2.71369199      -2.82858333        1 
H       1.50127645      -2.16573739      -2.81640608        1 
H      -2.59510208      -3.19342380       2.16345261        1 
H      -1.41944746      -4.24910284       1.31626903        1 
C      -2.03495143       1.33598530      -1.08680645        6 
C       2.74535717       1.16711233      -0.45692847        6 
O       3.61938407       1.07567108       0.65344437        8 
H       2.86958033       2.12939724      -0.97586506        1 
H       2.94267623       0.36436468      -1.17344991        1 
C       4.96131286       0.81734370       0.28225678        6 
H       5.54325420       0.76610520       1.20277463        1 
H       5.36488570       1.62030289      -0.35108888        1 
H       5.04273787      -0.13799344      -0.25114634        1 
O      -3.10172220       1.89943180      -0.34667334        8 
H      -2.28886587       0.33063365      -1.44417781        1 
H      -1.79708213       1.95771541      -1.96176230        1 
C      -4.38079956       1.54002324      -0.83350349        6 
H      -5.11344600       2.03786805      -0.19784955        1 
H      -4.52969512       0.45546048      -0.76947952        1 
H      -4.52585454       1.87065226      -1.87203865        1 
