43
Lattice="0.0 0.0 0.0 0.0 0.0 0.0 0.0 0.0 0.0" Properties=species:S:1:pos:R:3:Z:I:1 pbc="F F F"
C      -0.85391264       0.21780462      -0.60552213        6 
C       0.69463653      -0.08509839      -0.68235007        6 
C      -1.31920099       1.41418230       0.22637328        6 
C       1.65534041       1.03113129      -0.30760919        6 
O      -0.40234917       2.39589233       0.27383262        8 
O      -2.41323415       1.52962398       0.72303196        8 
O       1.84963676       1.82339588      -1.38655528        8 
O       2.24971531       1.17666390       0.73130688        8 
C       2.70978257       2.95432063      -1.18795563        6 
C      -0.76354129       3.57665268       1.01323909        6 
C      -1.35530817      -1.16413915      -0.06926513        6 
C      -1.05379095      -2.23940970      -1.15686897        6 
C       0.44176427      -2.54862072      -0.90157659        6 
C       0.79250457      -1.43937417       0.11084493        6 
O      -0.37633883      -1.42975005       0.95030260        8 
H      -1.25375406       0.40793241      -1.60418301        1 
H       0.92637015      -0.28287212      -1.72840191        1 
H       3.71419669       2.63063448      -0.90989003        1 
H      -0.95080060       3.32553726       2.05784256        1 
H      -1.68509523      -3.11526577      -1.00566824        1 
H      -1.25666089      -1.86282951      -2.16022143        1 
H       0.57228607      -3.52270335      -0.42577721        1 
H       1.06766761      -2.51668942      -1.79298404        1 
H       2.72744932       3.47893003      -2.14092318        1 
H       2.31193333       3.60023712      -0.40319899        1 
H      -1.65534742       4.03531939       0.58434852        1 
H       0.09225586       4.24226134       0.92907642        1 
C      -2.75022204      -1.28151211       0.51080097        6 
C       2.02536724      -1.69636661       0.94933401        6 
O       3.13578854      -1.70415314       0.06417006        8 
H       1.91994129      -2.67075291       1.44802413        1 
H       2.13484690      -0.91699436       1.70648655        1 
C       4.37785035      -1.61373057       0.73761887        6 
H       5.15816803      -1.63907031      -0.02379189        1 
H       4.52327842      -2.45854057       1.42551294        1 
H       4.44938221      -0.67532987       1.30177627        1 
O      -3.66289978      -1.02492564      -0.54306038        8 
H      -2.89259257      -0.58092470       1.33512220        1 
H      -2.87704478      -2.30632989       0.89094775        1 
C      -4.99142953      -0.84603527      -0.08930074        6 
H      -5.61112364      -0.67340910      -0.96983065        1 
H      -5.06375517       0.01980395       0.58050391        1 
H      -5.35993590      -1.73883271       0.43620451        1 
