43
Lattice="0.0 0.0 0.0 0.0 0.0 0.0 0.0 0.0 0.0" Properties=species:S:1:pos:R:3:Z:I:1 pbc="F F F"
C      -0.83470255       0.26581143      -0.70016017        6 
C       0.70176089       0.08096653      -0.81339785        6 
C      -1.21203901       1.34703186       0.30539511        6 
C       1.46666678       1.39459969      -0.83056198        6 
O      -2.52093137       1.66362577       0.19051402        8 
O      -0.46829328       1.88836734       1.08319992        8 
O       2.73306529       1.28947632      -0.39539354        8 
O       0.99624190       2.41842202      -1.26430950        8 
C       3.51532015       2.49692677      -0.45872846        6 
C      -2.99922156       2.68992177       1.07789831        6 
C      -1.19278030      -1.13016642      -0.07786334        6 
C      -0.75616244      -2.26332272      -1.05313829        6 
C       0.75828232      -2.39907577      -0.73213074        6 
C       0.97158115      -1.14623185       0.14268552        6 
O      -0.21066082      -1.19585703       0.96886730        8 
H      -1.33809760       0.44997729      -1.64612577        1 
H       0.89818185      -0.27854617      -1.83061811        1 
H       3.05322529       3.27933208       0.14456794        1 
H      -2.44182549       3.61496637       0.92477311        1 
H      -1.30561645      -3.18008818      -0.83705191        1 
H      -0.95750767      -1.99880819      -2.09191168        1 
H       0.96274197      -3.29311596      -0.14003595        1 
H       1.40323745      -2.41655476      -1.61008092        1 
H       4.49206189       2.22862118      -0.06180657        1 
H       3.60227095       2.84150249      -1.49021973        1 
H      -2.89468770       2.37627271       2.11831119        1 
H      -4.04802025       2.82688568       0.82281229        1 
C      -2.57727464      -1.31961469       0.50698475        6 
C       2.19007774      -1.16673482       1.03867428        6 
O       3.31354202      -1.51419375       0.24812197        8 
H       2.02351197      -1.91986540       1.82239037        1 
H       2.32907473      -0.19247156       1.51777920        1 
C       4.54028373      -1.30637403       0.91519132        6 
H       5.33454558      -1.60585209       0.23054886        1 
H       4.61094547      -1.91119943       1.83087601        1 
H       4.67247829      -0.24882256       1.18108332        1 
O      -3.50040467      -1.28935206      -0.56522853        8 
H      -2.80682992      -0.53861685       1.24053408        1 
H      -2.60876915      -2.29018465       1.02387157        1 
C      -4.84680760      -1.28162038      -0.13396238        6 
H      -5.47050400      -1.25535230      -1.02767596        1 
H      -5.06014873      -0.39623448       0.48044225        1 
H      -5.08922331      -2.18337326       0.44630544        1 
