43
Lattice="0.0 0.0 0.0 0.0 0.0 0.0 0.0 0.0 0.0" Properties=species:S:1:pos:R:3:Z:I:1 pbc="F F F"
C      -0.73180544      -0.10350137       0.78062665        6 
C       0.83438925      -0.08198810       0.71023042        6 
C      -1.30880986      -1.48385299       0.49529157        6 
C       1.43154272      -1.21933987      -0.09925233        6 
O      -2.51353309      -1.47504710      -0.09396172        8 
O      -0.75041833      -2.50008730       0.83610691        8 
O       2.42611528      -1.82065575       0.57964483        8 
O       1.10377510      -1.53071146      -1.21891956        8 
C       3.04885227      -2.93444103      -0.08262171        6 
C      -3.10976835      -2.76657202      -0.32282292        6 
C      -1.10941563       1.19055773      -0.02493934        6 
C      -0.85262928       2.38964707       0.92632358        6 
C       0.69891733       2.42203188       0.97260047        6 
C       1.05978662       1.28665597      -0.01843899        6 
O      -0.02429080       1.31665112      -0.95652121        8 
H      -1.02741522       0.05315098       1.82289467        1 
H       1.29141299      -0.08751767       1.69559503        1 
H       3.52039100      -2.61395163      -1.01342242        1 
H      -3.27793537      -3.28105346       0.62420435        1 
H      -1.25727122       3.29829982       0.47749152        1 
H      -1.32411963       2.25875560       1.90014416        1 
H       1.09451054       3.37311407       0.61205363        1 
H       1.11195292       2.24471717       1.96569153        1 
H       3.79519884      -3.30636802       0.61599637        1 
H       2.30730359      -3.70414814      -0.30136946        1 
H      -2.46284104      -3.37464189      -0.95598497        1 
H      -4.05541907      -2.56269629      -0.82065548        1 
C      -2.41804404       1.27054001      -0.78114832        6 
C       2.36837217       1.45726750      -0.76176123        6 
O       3.41411906       1.37563220       0.19057049        8 
H       2.37008779       2.43450470      -1.26604889        1 
H       2.46872133       0.67980082      -1.52916644        1 
C       4.70048578       1.37588897      -0.39633359        6 
H       5.42361618       1.29075022       0.41493047        1 
H       4.89012182       2.30554936      -0.95133579        1 
H       4.82547331       0.52532936      -1.08068350        1 
O      -3.46729739       1.31257080       0.17104713        8 
H      -2.53008837       0.41649191      -1.45395730        1 
H      -2.40690307       2.19070948      -1.38370527        1 
C      -4.74483656       1.17066723      -0.41436589        6 
H      -5.47753509       1.22324437       0.39149222        1 
H      -4.84073696       0.20362221      -0.92683733        1 
H      -4.94928427       1.97392142      -1.13679222        1 
