43
Lattice="0.0 0.0 0.0 0.0 0.0 0.0 0.0 0.0 0.0" Properties=species:S:1:pos:R:3:Z:I:1 pbc="F F F"
C      -0.74064184       0.16424357       0.89898590        6 
C       0.83389126       0.01575013       0.82260474        6 
C      -1.50979271      -1.14239480       0.94552060        6 
C       1.27336218      -1.35995577       0.32161006        6 
O      -1.90147465      -1.57968129      -0.27223068        8 
O      -1.63914390      -1.79130706       1.95060744        8 
O       1.88037164      -1.35892869      -0.87912138        8 
O       1.04711427      -2.37566174       0.93216797        8 
C       2.24849136      -2.64997253      -1.39620291        6 
C      -2.50923760      -2.88436892      -0.29634993        6 
C      -1.00842550       1.26892386      -0.18484542        6 
C      -0.76837857       2.61524831       0.53004819        6 
C       0.75776756       2.52782587       0.78911378        6 
C       1.15995192       1.26766474      -0.04072906        6 
O       0.13790991       1.19679629      -1.05189974        8 
H      -0.96476152       0.59262800       1.87566901        1 
H       1.25484810       0.09566697       1.82393448        1 
H       1.36160935      -3.27142363      -1.52935451        1 
H      -3.42188500      -2.89008710       0.30155676        1 
H      -1.01105943       3.43421622      -0.15019726        1 
H      -1.36854660       2.72786517       1.43288472        1 
H       1.28535238       3.40800681       0.42000852        1 
H       1.01095012       2.41208443       1.84386478        1 
H       2.72334389      -2.45173708      -2.35488885        1 
H       2.93982153      -3.15250522      -0.71847324        1 
H      -1.81552604      -3.62822435       0.09782442        1 
H      -2.73547032      -3.07976353      -1.34283298        1 
C      -2.27642419       1.17774757      -1.00557838        6 
C       2.53193572       1.37107378      -0.68255417        6 
O       3.48885018       1.12479442       0.33585363        8 
H       2.66016890       2.38191531      -1.09621207        1 
H       2.62704975       0.64680365      -1.49323234        1 
C       4.81890645       1.12652651      -0.14433466        6 
H       5.46943565       0.92303788       0.70652238        1 
H       5.08838777       2.09997247      -0.57750965        1 
H       4.96715080       0.34861447      -0.90604066        1 
O      -3.36431854       1.13858381      -0.09591543        8 
H      -2.25425805       0.27837997      -1.62674405        1 
H      -2.34901921       2.05886976      -1.65959113        1 
C      -4.60025761       0.86304344      -0.72549020        6 
H      -5.36354547       0.85414485       0.05282082        1 
H      -4.58017218      -0.11575087      -1.22394287        1 
H      -4.85377345       1.63241962      -1.46831817        1 
