43
Lattice="0.0 0.0 0.0 0.0 0.0 0.0 0.0 0.0 0.0" Properties=species:S:1:pos:R:3:Z:I:1 pbc="F F F"
C      -0.79570297       0.03968657      -0.74770629        6 
C       0.77506074       0.09536231      -0.80549639        6 
C      -1.42926803       1.21788483      -0.03412719        6 
C       1.30035713       1.49110563      -0.49090960        6 
O      -2.44427408       1.72698261      -0.75508311        8 
O      -1.11342778       1.62838217       1.05756028        8 
O       2.29241355       1.54678686       0.40525262        8 
O       0.84723536       2.46974459      -1.03815535        8 
C       2.77206604       2.86693500       0.72773189        6 
C      -3.13475873       2.84262806      -0.16630671        6 
C      -1.00458135      -1.29073987       0.06083359        6 
C      -0.66970174      -2.47039713      -0.88276219        6 
C       0.88009097      -2.39863856      -0.92005609        6 
C       1.16250798      -1.18375055       0.00765231        6 
O       0.10246509      -1.28468378       0.97148948        8 
H      -1.23633751      -0.03549013      -1.73762820        1 
H       1.08233760      -0.04597506      -1.84449190        1 
H       1.95959247       3.47100942       1.13247575        1 
H      -2.44266385       3.66827455       0.00415708        1 
H      -1.01593352      -3.40503471      -0.43778287        1 
H      -1.14437896      -2.36867243      -1.85821161        1 
H       1.33110982      -3.29592735      -0.49303854        1 
H       1.29215423      -2.26060306      -1.91966793        1 
H       3.54877836       2.71562352       1.47426719        1 
H       3.17984979       3.35159116      -0.16026016        1 
H      -3.59143861       2.55303507       0.78182619        1 
H      -3.89837806       3.12349014      -0.88837464        1 
C      -2.29412079      -1.43320147       0.84259186        6 
C       2.49788052      -1.24923024       0.71723556        6 
O       3.50780418      -1.13253272      -0.27229343        8 
H       2.57335236      -2.21741177       1.23366833        1 
H       2.57650017      -0.45068350       1.45825505        1 
C       4.80138865      -0.98280436       0.27587251        6 
H       5.49765290      -0.89377856      -0.55864604        1 
H       5.08450298      -1.85231407       0.88611515        1 
H       4.86633365      -0.07916492       0.89703228        1 
O      -3.36122047      -1.46772087      -0.08871372        8 
H      -2.40922841      -0.59862983       1.54527528        1 
H      -2.25195378      -2.36452758       1.42608327        1 
C      -4.63215438      -1.51344624       0.52968297        6 
H      -5.37676017      -1.53443201      -0.26621537        1 
H      -4.80176759      -0.62815555       1.15836357        1 
H      -4.74429029      -2.41299369       1.15130454        1 
