43
Lattice="0.0 0.0 0.0 0.0 0.0 0.0 0.0 0.0 0.0" Properties=species:S:1:pos:R:3:Z:I:1 pbc="F F F"
C      -0.77759471      -0.08464584      -0.76022159        6 
C       0.78259909       0.11138927      -0.77257830        6 
C      -1.57548407       1.14935143      -0.37160675        6 
C       1.34795996       1.33621352      -0.07752624        6 
O      -1.32947724       2.12138579      -1.28510675        8 
O      -2.33839531       1.29464703       0.54768120        8 
O       0.59547044       1.73517541       0.96249493        8 
O       2.40230767       1.84822510      -0.36964806        8 
C       1.07722435       2.85902565       1.71765800        6 
C      -1.98066080       3.38147914      -1.05237295        6 
C      -0.93088991      -1.38157922       0.10110963        6 
C      -0.57582534      -2.57210468      -0.82306674        6 
C       0.95938182      -2.40201723      -0.96843962        6 
C       1.22808262      -1.20018626      -0.02676808        6 
O       0.21274028      -1.33464637       0.97516006        8 
H      -1.09994734      -0.29438273      -1.78206553        1 
H       1.18554104       0.13305259      -1.78215407        1 
H       1.17476680       3.73616673       1.07571052        1 
H      -1.67007646       3.79584414      -0.09155102        1 
H      -0.82648497      -3.50659809      -0.31766155        1 
H      -1.12041742      -2.54470672      -1.76655761        1 
H       1.49904031      -3.27975019      -0.60970102        1 
H       1.29163744      -2.20428274      -1.98739738        1 
H       0.33031794       3.02650688       2.49023068        1 
H       2.04724100       2.63079259       2.16177106        1 
H      -3.06471626       3.25876557      -1.05605659        1 
H      -1.66469485       4.02745040      -1.86859403        1 
C      -2.19278820      -1.56890634       0.91568786        6 
C       2.59903046      -1.19319948       0.61658381        6 
O       3.55309636      -1.19748509      -0.42736246        8 
H       2.70047911      -2.08750381       1.24855951        1 
H       2.72537131      -0.31357499       1.26068045        1 
C       4.85465433      -0.83887267      -0.00044063        6 
H       5.50144241      -0.88660824      -0.87647736        1 
H       5.23340699      -1.53327199       0.76302925        1 
H       4.86724108       0.18255207       0.40027261        1 
O      -3.27394078      -1.62078090      -0.00326296        8 
H      -2.31667007      -0.74288697       1.61853330        1 
H      -2.11575733      -2.51180851       1.47690958        1 
C      -4.53616754      -1.48990533       0.62410991        6 
H      -5.29218114      -1.55413685      -0.15923405        1 
H      -4.62139158      -0.52194337       1.13359242        1 
H      -4.70774612      -2.29582865       1.35176678        1 
