43
Lattice="0.0 0.0 0.0 0.0 0.0 0.0 0.0 0.0 0.0" Properties=species:S:1:pos:R:3:Z:I:1 pbc="F F F"
C      -0.58124939      -0.03259377       0.83040705        6 
C       0.94303192      -0.31553521       0.78403037        6 
C      -1.56626461      -1.18983120       0.81902686        6 
C       1.47757999      -1.46997844      -0.05245100        6 
O      -2.71100704      -0.78016860       1.41632485        8 
O      -1.42683880      -2.30431805       0.38293002        8 
O       0.73148176      -1.74638298      -1.12491664        8 
O       2.56429620      -1.96688952       0.14975338        8 
C       1.20512516      -2.79427926      -1.98438355        6 
C      -3.79082371      -1.72709354       1.43253591        6 
C      -0.75323628       1.12373980      -0.24674498        6 
C      -0.52671744       2.43475309       0.52835158        6 
C       0.96305120       2.24510656       0.93969118        6 
C       1.38954831       1.01991878       0.07262178        6 
O       0.45734848       1.05549497      -1.01715366        8 
H      -0.77931726       0.43074059       1.79760214        1 
H       1.38345236      -0.41004515       1.77450296        1 
H       1.27507326      -3.73292021      -1.43274625        1 
H      -3.50522782      -2.62813036       1.97787707        1 
H      -0.64875306       3.28350406      -0.14731921        1 
H      -1.21247556       2.55617704       1.36609594        1 
H       1.57187873       3.11391266       0.68894240        1 
H       1.09581387       2.05030060       2.00468014        1 
H       0.46433274      -2.87385599      -2.77675092        1 
H       2.18415883      -2.54220932      -2.39578155        1 
H      -4.07429604      -2.00259880       0.41485491        1 
H      -4.61310500      -1.21998376       1.93267016        1 
C      -1.93187293       1.06311440      -1.19587372        6 
C       2.81063049       1.08050748      -0.44583966        6 
O       3.66610491       1.08528580       0.68118223        8 
H       2.93738816       1.99669017      -1.04129144        1 
H       3.02494254       0.22423891      -1.09529711        1 
C       5.00591988       0.74783269       0.36795032        6 
H       5.56840979       0.78006418       1.30120736        1 
H       5.44637799       1.46471049      -0.33952762        1 
H       5.06513308      -0.26285377      -0.05449826        1 
O      -3.08437370       1.53966859      -0.52826048        8 
H      -2.07839480       0.03316788      -1.55216409        1 
H      -1.70116740       1.68965839      -2.06977751        1 
C      -4.26448705       1.38540988      -1.28966996        6 
H      -5.08590580       1.78313659      -0.69331615        1 
H      -4.46137508       0.32700969      -1.51212982        1 
H      -4.20879569       1.93884422      -2.23787631        1 
