43
Lattice="0.0 0.0 0.0 0.0 0.0 0.0 0.0 0.0 0.0" Properties=species:S:1:pos:R:3:Z:I:1 pbc="F F F"
C      -0.64402198       0.04508943       0.75108114        6 
C       0.85622591      -0.34240838       0.64876296        6 
C      -1.68086864      -1.05926156       0.77426465        6 
C       1.19583272      -1.38478273      -0.42041716        6 
O      -1.15588629      -2.18630215       1.30790831        8 
O      -2.86602393      -0.91573659       0.59897999        8 
O       0.11111014      -1.88563857      -1.04314768        8 
O       2.31776753      -1.62012918      -0.80317873        8 
C       0.36111163      -2.74889722      -2.16511880        6 
C      -2.07699674      -3.26480211       1.53795198        6 
C      -0.76000358       1.30015194      -0.18864039        6 
C      -0.44805262       2.50877503       0.71391709        6 
C       1.01638980       2.17781809       1.10924974        6 
C       1.38375601       1.04353208       0.10185455        6 
O       0.44783268       1.23663826      -0.97751934        8 
H      -0.78531803       0.41852321       1.77317332        1 
H       1.31300060      -0.62735750       1.59403882        1 
H       0.93052166      -3.62521658      -1.85218737        1 
H      -2.54418194      -3.57343857       0.60125778        1 
H      -0.50636099       3.42606222       0.12562653        1 
H      -1.13614456       2.59318120       1.55423165        1 
H       1.68149852       3.03037818       0.97455461        1 
H       1.12376123       1.84560037       2.14289136        1 
H      -0.62193173      -3.04003508      -2.52934658        1 
H       0.91590819      -2.21572106      -2.93844222        1 
H      -2.85396292      -2.96466200       2.24311581        1 
H      -1.47764137      -4.07414954       1.94962727        1 
C      -1.96163882       1.43362745      -1.10061624        6 
C       2.80365694       1.15198649      -0.41502493        6 
O       3.66795175       0.93537486       0.68687170        8 
H       2.94179578       2.16448949      -0.82374553        1 
H       2.99449589       0.42825942      -1.20941825        1 
C       5.01965097       0.77193789       0.29965116        6 
H       5.59882153       0.61969979       1.21082731        1 
H       5.39918396       1.66354044      -0.22000477        1 
H       5.13767665      -0.10072278      -0.35516645        1 
O      -3.03083904       1.96220160      -0.33764096        8 
H      -2.22820062       0.46279606      -1.53229829        1 
H      -1.69538950       2.11635467      -1.92043976        1 
C      -4.30380870       1.69801902      -0.89669482        6 
H      -5.04188627       2.15190979      -0.23467726        1 
H      -4.48615729       0.61848730      -0.95317034        1 
H      -4.40428549       2.14044966      -1.89850096        1 
