43
Lattice="0.0 0.0 0.0 0.0 0.0 0.0 0.0 0.0 0.0" Properties=species:S:1:pos:R:3:Z:I:1 pbc="F F F"
C      -0.90439495      -0.03960330      -0.69527367        6 
C       0.67147317      -0.07234955      -0.85173286        6 
C      -1.47289950       1.18680304       0.01633835        6 
C       1.38542168       1.25024826      -0.64439849        6 
O      -1.13813295       2.29915419      -0.66614386        8 
O      -2.19604764       1.20858018       0.98087173        8 
O       1.63869539       1.51118387       0.65772538        8 
O       1.59366651       2.04335083      -1.52674641        8 
C       2.20872106       2.80067666       0.93697013        6 
C      -1.63438743       3.54469720      -0.14891443        6 
C      -1.12881744      -1.40196007       0.02467867        6 
C      -0.75110701      -2.53611793      -0.97609016        6 
C       0.79541012      -2.55690908      -0.87050196        6 
C       1.04110174      -1.32160186       0.02383703        6 
O      -0.04045984      -1.41777162       0.96430675        8 
H      -1.36734819      -0.03118643      -1.68265584        1 
H       0.89481250      -0.29924893      -1.89309589        1 
H       1.54232704       3.59168223       0.58925710        1 
H      -1.30983639       3.68597812       0.88329093        1 
H      -1.19088485      -3.47998937      -0.65147334        1 
H      -1.11923342      -2.33155210      -1.98201755        1 
H       1.14583500      -3.45107761      -0.35113065        1 
H       1.31284296      -2.49256887      -1.82780890        1 
H       2.32194822       2.84088965       2.01832097        1 
H       3.17595109       2.90744319       0.44303340        1 
H      -2.72487705       3.56480851      -0.18617451        1 
H      -1.21316357       4.31114230      -0.79550578        1 
C      -2.44215600      -1.63537503       0.74570112        6 
C       2.36157162      -1.29889835       0.76435528        6 
O       3.37148545      -0.98196246      -0.18096282        8 
H       2.54649272      -2.28485807       1.21387648        1 
H       2.32712077      -0.55049755       1.56117446        1 
C       4.63214035      -0.74910798       0.41670826        6 
H       5.33139046      -0.51534086      -0.38624967        1 
H       4.99046275      -1.63530864       0.95862866        1 
H       4.58760596       0.09727602       1.11620844        1 
O      -3.47641476      -1.46562910      -0.21203071        8 
H      -2.55311751      -0.93125978       1.57150053        1 
H      -2.44916988      -2.66097215       1.14348872        1 
C      -4.76770969      -1.48987176       0.36599254        6 
H      -5.48548384      -1.35452609      -0.44368590        1 
H      -4.88809797      -0.67962451       1.09656559        1 
H      -4.96693235      -2.45022176       0.86274016        1 
