43
Lattice="0.0 0.0 0.0 0.0 0.0 0.0 0.0 0.0 0.0" Properties=species:S:1:pos:R:3:Z:I:1 pbc="F F F"
C      -0.82052212      -0.02793320       0.83660636        6 
C       0.74064858       0.09230462       0.87610290        6 
C      -1.45598842      -1.28197375       0.25355726        6 
C       1.63898177      -1.13251581       0.82759580        6 
O      -1.16534331      -1.48495194      -1.04307374        8 
O      -2.24791509      -1.96045607       0.86560609        8 
O       1.09399757      -2.21493635       0.24594596        8 
O       2.75208926      -1.13536539       1.29782962        8 
C       1.90875440      -3.40113318       0.22210981        6 
C      -1.74568958      -2.65198728      -1.64077004        6 
C      -1.14238860       1.23321260      -0.03891046        6 
C      -0.71744661       2.50651730       0.74885513        6 
C       0.81130916       2.56004028       0.47715174        6 
C       1.01588148       1.20148495      -0.22351198        6 
O      -0.14359977       1.13513982      -1.06361636        8 
H      -1.24132730       0.06389084       1.83486527        1 
H       1.01106053       0.52708960       1.83820249        1 
H       2.14708321      -3.71979000       1.23770479        1 
H      -2.83586882      -2.59158711      -1.63387024        1 
H      -1.23254030       3.38259047       0.35254921        1 
H      -0.96958776       2.42891300       1.80680924        1 
H       1.06733313       3.36588641      -0.21300817        1 
H       1.42199746       2.66899530       1.37224552        1 
H       1.30815735      -4.15317256      -0.28479190        1 
H       2.83552508      -3.21662787      -0.32314917        1 
H      -1.43884883      -3.54960723      -1.10063363        1 
H      -1.37025116      -2.67170620      -2.66186293        1 
C      -2.52601550       1.30515816      -0.65306802        6 
C       2.26452206       1.06181775      -1.06845319        6 
O       3.36622080       1.48536721      -0.29208958        8 
H       2.15276464       1.68446614      -1.96817697        1 
H       2.38890717       0.02053039      -1.39690494        1 
C       4.61397608       1.07204355      -0.81428413        6 
H       5.38316516       1.46112636      -0.14737919        1 
H       4.77920040       1.46987782      -1.82575018        1 
H       4.68552114      -0.02308134      -0.84109009        1 
O      -3.45179968       1.37465062       0.41606937        8 
H      -2.71683508       0.42837643      -1.28289242        1 
H      -2.59167113       2.19907634      -1.29052890        1 
C      -4.79903261       1.27550113      -0.00425114        6 
H      -5.41798570       1.32727299       0.89136868        1 
H      -4.98621063       0.32081499      -0.51447903        1 
H      -5.07150697       2.09929588      -0.67895747        1 
