43
Lattice="0.0 0.0 0.0 0.0 0.0 0.0 0.0 0.0 0.0" Properties=species:S:1:pos:R:3:Z:I:1 pbc="F F F"
C      -0.64086774      -0.02058018       0.83162797        6 
C       0.90726598      -0.24042937       0.81797551        6 
C      -1.53749737      -1.21946631       0.58472877        6 
C       1.44222878      -1.49405879       0.13716851        6 
O      -2.65156081      -1.10444186       1.34091544        8 
O      -1.34282552      -2.15706093      -0.14926103        8 
O       1.15548804      -1.55945255      -1.16949290        8 
O       2.15182566      -2.29141693       0.70668443        8 
C       1.54106680      -2.76728469      -1.84346937        6 
C      -3.63971063      -2.13456374       1.17213470        6 
C      -0.80673087       1.18940782      -0.18062577        6 
C      -0.54681513       2.46581839       0.64391806        6 
C       0.96808334       2.29254072       0.95519527        6 
C       1.34086317       1.06440653       0.07196462        6 
O       0.37551597       1.12633703      -0.98645823        8 
H      -0.92583485       0.33840593       1.81896796        1 
H       1.30569858      -0.27321882       1.82919365        1 
H       0.99878265      -3.61420305      -1.42006989        1 
H      -3.22568236      -3.11000280       1.43227342        1 
H      -0.72854817       3.34383689       0.02073134        1 
H      -1.18006026       2.53497900       1.52747655        1 
H       1.54778468       3.16437000       0.64990868        1 
H       1.17626433       2.11172648       2.01010437        1 
H       1.25928986      -2.61940997      -2.88375021        1 
H       2.61497224      -2.93888300      -1.75313876        1 
H      -3.99166773      -2.16025297       0.13922973        1 
H      -4.45169873      -1.86907783       1.84536459        1 
C      -2.01107649       1.19508062      -1.09804616        6 
C       2.74499986       1.09172738      -0.49533926        6 
O       3.63998939       1.06135607       0.60185677        8 
H       2.87707734       2.01003237      -1.08642950        1 
H       2.90857319       0.23554708      -1.16043340        1 
C       4.99191483       0.90992312       0.21238339        6 
H       5.58764943       0.89118521       1.12493637        1 
H       5.32465484       1.74690621      -0.41771839        1 
H       5.14429972      -0.03002561      -0.33511430        1 
O      -3.16350585       1.48003165      -0.32758466        8 
H      -2.10331843       0.22331835      -1.60359143        1 
H      -1.85660595       1.96297888      -1.86958954        1 
C      -4.36052594       1.39115546      -1.07445021        6 
H      -5.18016940       1.63418017      -0.39809985        1 
H      -4.50966481       0.37721810      -1.47193604        1 
H      -4.36495069       2.10055441      -1.91405071        1 
