43
Lattice="0.0 0.0 0.0 0.0 0.0 0.0 0.0 0.0 0.0" Properties=species:S:1:pos:R:3:Z:I:1 pbc="F F F"
C      -0.66084673       0.04853487       0.77751454        6 
C       0.84743036      -0.29546890       0.68797666        6 
C      -1.67672374      -1.07712579       0.80161653        6 
C       1.23666095      -1.36922950      -0.32142903        6 
O      -1.10197056      -2.25503928       1.12991261        8 
O      -2.87418676      -0.92290048       0.78681111        8 
O       0.22952182      -1.72422256      -1.14102253        8 
O       2.37339343      -1.74809036      -0.48620295        8 
C       0.56497746      -2.62243324      -2.21066232        6 
C      -1.99780250      -3.35630540       1.35699423        6 
C      -0.80642213       1.28891280      -0.18303401        6 
C      -0.50752440       2.52066032       0.69308957        6 
C       0.97370645       2.23706118       1.06567146        6 
C       1.34221122       1.07981898       0.08708794        6 
O       0.39351629       1.23430689      -0.98294418        8 
H      -0.82162677       0.43541999       1.79129532        1 
H       1.31563558      -0.52469404       1.64224421        1 
H       0.97943991      -3.55072588      -1.81462328        1 
H      -2.56373156      -3.57969617       0.45092376        1 
H      -0.60208818       3.42607153       0.09124784        1 
H      -1.18018444       2.60222852       1.54591472        1 
H       1.61548758       3.09963024       0.88685523        1 
H       1.11141624       1.94173095       2.10666469        1 
H      -0.37017868      -2.81206240      -2.73352135        1 
H       1.29157060      -2.16172775      -2.88182609        1 
H      -2.69340022      -3.12546514       2.16522994        1 
H      -1.36065309      -4.19628845       1.62522981        1 
C      -2.02082382       1.37940823      -1.08337511        6 
C       2.75602887       1.16677855      -0.44834410        6 
O       3.62976986       1.04393811       0.65953887        8 
H       2.88203094       2.14344277      -0.93946237        1 
H       2.95107014       0.38383966      -1.18626356        1 
C       4.97474753       0.81701488       0.27973783        6 
H       5.55788584       0.74071048       1.19776610        1 
H       5.36706450       1.64735189      -0.32473691        1 
H       5.06892574      -0.11712787      -0.28815171        1 
O      -3.08893441       1.91655248      -0.32523921        8 
H      -2.27705780       0.39139218      -1.48247579        1 
H      -1.77527782       2.03776222      -1.92912830        1 
C      -4.36609339       1.59352084      -0.84245841        6 
H      -5.10129795       2.06223435      -0.18776646        1 
H      -4.52233728       0.50843902      -0.83958278        1 
H      -4.49834035       1.98190317      -1.86264169        1 
