43
Lattice="0.0 0.0 0.0 0.0 0.0 0.0 0.0 0.0 0.0" Properties=species:S:1:pos:R:3:Z:I:1 pbc="F F F"
C      -0.69204674      -0.08945075       0.80794826        6 
C       0.84449596      -0.26033950       0.69579645        6 
C      -1.45521808      -1.40267094       0.81995713        6 
C       1.23608795      -1.31948253      -0.32691847        6 
O      -2.74705863      -1.26418072       0.47327493        8 
O      -0.97201116      -2.44925945       1.17683478        8 
O       2.54277450      -1.64394130      -0.20183128        8 
O       0.50162467      -1.84441873      -1.12426115        8 
C       3.02076070      -2.66280853      -1.09843132        6 
C      -3.54509211      -2.46091662       0.53418981        6 
C      -0.97502098       1.14044382      -0.14253015        6 
C      -0.77952779       2.39026454       0.74058264        6 
C       0.73506085       2.26682862       1.06901446        6 
C       1.18847875       1.14571410       0.08789920        6 
O       0.21046105       1.20885839      -0.96251400        8 
H      -0.89166088       0.26558951       1.82641541        1 
H       1.34852893      -0.45122824       1.63992344        1 
H       2.92324779      -2.33761748      -2.13594473        1 
H      -3.56581156      -2.85579298       1.55104520        1 
H      -0.98977943       3.28608329       0.15338409        1 
H      -1.42907623       2.39583154       1.61540098        1 
H       1.27655365       3.19073881       0.86325929        1 
H       0.93282870       1.99594890       2.10689628        1 
H       4.06724969      -2.80901233      -0.83916784        1 
H       2.45691310      -3.58622043      -0.95879701        1 
H      -3.14316839      -3.21992449      -0.13839365        1 
H      -4.54228106      -2.15779788       0.22189361        1 
C      -2.18882453       1.14868014      -1.04649172        6 
C       2.57462407       1.34498882      -0.48872157        6 
O       3.49326313       1.28665818       0.58644851        8 
H       2.61420460       2.32522587      -0.98603353        1 
H       2.80150605       0.57755282      -1.23720100        1 
C       4.83909013       1.20737972       0.16044760        6 
H       5.45799725       1.16470465       1.05687749        1 
H       5.12733286       2.08678056      -0.43282373        1 
H       5.00924897       0.30236535      -0.43843668        1 
O      -3.31766145       1.51762985      -0.27413184        8 
H      -2.32965757       0.16628115      -1.50893718        1 
H      -2.01146820       1.88486789      -1.84384472        1 
C      -4.53817113       1.31202309      -0.95310737        6 
H      -5.33763262       1.63070553      -0.28335130        1 
H      -4.67864482       0.25176549      -1.20432106        1 
H      -4.59107827       1.90294199      -1.87904169        1 
