43
Lattice="0.0 0.0 0.0 0.0 0.0 0.0 0.0 0.0 0.0" Properties=species:S:1:pos:R:3:Z:I:1 pbc="F F F"
C      -0.83983421       0.29531058      -0.67474130        6 
C       0.69634010       0.13484665      -0.78312043        6 
C      -1.26676412       1.32960649       0.35807833        6 
C       1.47905908       1.43529669      -0.74094302        6 
O      -2.53306321       1.73872444       0.11166603        8 
O      -0.60435217       1.74098573       1.27465974        8 
O       2.80294275       1.21746190      -0.62202372        8 
O       0.99787817       2.53269980      -0.87560081        8 
C       3.63837426       2.38856317      -0.65433143        6 
C      -3.06283263       2.71687646       1.02292824        6 
C      -1.18152678      -1.12352378      -0.09444218        6 
C      -0.72528428      -2.22572541      -1.09544953        6 
C       0.79052607      -2.34993376      -0.76993888        6 
C       0.97976233      -1.11912676       0.14022333        6 
O      -0.20636416      -1.20855494       0.95461729        8 
H      -1.33601383       0.49218635      -1.62193499        1 
H       0.90468691      -0.19641845      -1.80728787        1 
H       3.38717476       3.05810796       0.16966084        1 
H      -2.44840735       3.61822538       1.01221680        1 
H      -1.26399317      -3.15462189      -0.90530010        1 
H      -0.92462002      -1.93796831      -2.12843418        1 
H       1.00517753      -3.25729086      -0.20258373        1 
H       1.43914227      -2.33429363      -1.64539115        1 
H       4.65644229       2.01843718      -0.55396462        1 
H       3.51538989       2.92061043      -1.59904554        1 
H      -3.09513010       2.31822531       2.03886214        1 
H      -4.06724982       2.93268461       0.66454631        1 
C      -2.56937280      -1.33238089       0.47531696        6 
C       2.18991784      -1.13389694       1.04979755        6 
O       3.31948662      -1.52794437       0.29235029        8 
H       1.99683608      -1.85447518       1.85746634        1 
H       2.34084676      -0.14727434       1.50223278        1 
C       4.53846153      -1.30995962       0.97006858        6 
H       5.33876981      -1.64815828       0.31102695        1 
H       4.58678379      -1.87701041       1.91101450        1 
H       4.68210352      -0.24401141       1.19480596        1 
O      -3.48257891      -1.30213582      -0.60524304        8 
H      -2.81270201      -0.55800725       1.21310896        1 
H      -2.59786223      -2.30582562       0.98667632        1 
C      -4.83336984      -1.31826522      -0.18734089        6 
H      -5.44827525      -1.29186590      -1.08708252        1 
H      -5.06617306      -0.44255818       0.43381139        1 
H      -5.06807565      -2.22937205       0.38126250        1 
