43
Lattice="0.0 0.0 0.0 0.0 0.0 0.0 0.0 0.0 0.0" Properties=species:S:1:pos:R:3:Z:I:1 pbc="F F F"
C      -0.86871431       0.18609866      -0.59923056        6 
C       0.68931101      -0.06797355      -0.67453473        6 
C      -1.35705530       1.38438345       0.21510449        6 
C       1.60813970       1.06117212      -0.23979364        6 
O      -0.51661775       2.43101896       0.11536470        8 
O      -2.41287332       1.45926206       0.79386234        8 
O       1.88733664       1.84474186      -1.30480943        8 
O       2.11822024       1.21509078       0.84268552        8 
C       2.73941469       2.97015474      -1.04823099        6 
C      -0.89772814       3.62765671       0.81780766        6 
C      -1.33507311      -1.20664678      -0.06559296        6 
C      -1.02660445      -2.26453866      -1.16752816        6 
C       0.48191305      -2.53436710      -0.94299961        6 
C       0.81979640      -1.43692543       0.08725806        6 
O      -0.33878483      -1.46591718       0.93872166        8 
H      -1.26838860       0.36379225      -1.60045941        1 
H       0.94242163      -0.22644501      -1.72174131        1 
H       3.71758238       2.63870380      -0.69572924        1 
H      -0.93373746       3.43822175       1.89131053        1 
H      -1.63066380      -3.15856962      -1.01052904        1 
H      -1.25830714      -1.88582108      -2.16388149        1 
H       0.64792735      -3.51401395      -0.49018313        1 
H       1.09122804      -2.46725290      -1.84405932        1 
H       2.83176156       3.48976834      -1.99966019        1 
H       2.29159081       3.62300635      -0.29685135        1 
H      -1.87350758       3.97556568       0.47674049        1 
H      -0.12561369       4.35734980       0.58520185        1 
C      -2.71937617      -1.35183788       0.53355024        6 
C       2.06811586      -1.67978530       0.90753801        6 
O       3.17286113      -1.58929522       0.01972895        8 
H       2.01230803      -2.68169248       1.35691095        1 
H       2.14366417      -0.93506419       1.70331602        1 
C       4.41641898      -1.51654213       0.69199122        6 
H       5.19046734      -1.44424737      -0.07278228        1 
H       4.59748816      -2.41466447       1.29923270        1 
H       4.46122962      -0.63195331       1.34000611        1 
O      -3.65243667      -1.07524368      -0.49754649        8 
H      -2.85123213      -0.67189675       1.37656369        1 
H      -2.83290128      -2.38658687       0.88994690        1 
C      -4.97327776      -0.91584584      -0.01463390        6 
H      -5.61039719      -0.72317451      -0.87841435        1 
H      -5.03724473      -0.06873376       0.67956361        1 
H      -5.32726854      -1.82434285       0.49356078        1 
