43
Lattice="0.0 0.0 0.0 0.0 0.0 0.0 0.0 0.0 0.0" Properties=species:S:1:pos:R:3:Z:I:1 pbc="F F F"
C      -0.69762560       0.14336678      -0.72318289        6 
C       0.85698011       0.26650674      -0.63012394        6 
C      -1.54403156       1.34408313      -0.34268095        6 
C       1.42184032       1.30653853       0.32952016        6 
O      -2.63263774       1.38817664      -1.14828579        8 
O      -1.33644404       2.16030614       0.51809804        8 
O       2.22983060       2.15822500      -0.35160135        8 
O       1.20251063       1.40706253       1.50625125        8 
C       2.81003033       3.21796512       0.42858720        6 
C      -3.58206684       2.42900497      -0.86740666        6 
C      -0.97428179      -1.19028209       0.09142498        6 
C      -0.76565380      -2.34648697      -0.90674104        6 
C       0.76260659      -2.21909749      -1.16419690        6 
C       1.18254638      -1.17069575      -0.09197343        6 
O       0.18307049      -1.32095551       0.92321695        8 
H      -0.95387797      -0.05096370      -1.76316668        1 
H       1.29853265       0.43520371      -1.60918228        1 
H       3.47272806       2.81151648       1.19500535        1 
H      -3.13144968       3.41139899      -1.01952263        1 
H      -1.01068107      -3.29203123      -0.41866828        1 
H      -1.38002789      -2.25356455      -1.80172668        1 
H       1.28595571      -3.16158816      -0.99792842        1 
H       1.00204156      -1.88166711      -2.17341135        1 
H       3.37238698       3.82480385      -0.27806522        1 
H       2.02745619       3.80647756       0.90960093        1 
H      -3.93779891       2.35662219       0.16185004        1 
H      -4.40024027       2.27076645      -1.56675645        1 
C      -2.20827941      -1.25323285       0.96624678        6 
C       2.55486940      -1.38557366       0.51196770        6 
O       3.50937729      -1.17094362      -0.51347759        8 
H       2.61777557      -2.41345399       0.89787960        1 
H       2.71410590      -0.69809624       1.35152025        1 
C       4.84349542      -1.28200258      -0.05659112        6 
H       5.49326401      -1.09343308      -0.91128340        1 
H       5.05008258      -2.28694921       0.33764479        1 
H       5.05875216      -0.54512706       0.72952625        1 
O      -3.34442394      -1.37442126       0.13002834        8 
H      -2.27214502      -0.35401768       1.59429751        1 
H      -2.11702558      -2.12358216       1.63178482        1 
C      -4.56370095      -1.28889794       0.83994287        6 
H      -5.36770468      -1.39510524       0.11131459        1 
H      -4.66350162      -0.31943204       1.34809398        1 
H      -4.65105719      -2.08793356       1.58972371        1 
