43
Lattice="0.0 0.0 0.0 0.0 0.0 0.0 0.0 0.0 0.0" Properties=species:S:1:pos:R:3:Z:I:1 pbc="F F F"
C      -0.57282094       0.09200257       0.87741551        6 
C       0.95733922      -0.19190023       0.78172384        6 
C      -1.40124373      -1.17954662       0.96818367        6 
C       1.36458418      -1.42317942      -0.01277779        6 
O      -2.57213242      -1.13894018       0.31345462        8 
O      -1.04542286      -2.12733025       1.62837622        8 
O       0.39119713      -1.87740635      -0.82440406        8 
O       2.48569847      -1.87384218      -0.01522335        8 
C       0.72476397      -3.00201114      -1.65453839        6 
C      -3.39997353      -2.31016913       0.43775918        6 
C      -0.76709221       1.25074665      -0.17290217        6 
C      -0.41947568       2.55262540       0.58168480        6 
C       1.09731975       2.34299273       0.83779237        6 
C       1.39730976       1.08247345      -0.02182780        6 
O       0.38044721       1.12157396      -1.03729348        8 
H      -0.75412255       0.52993741       1.86470989        1 
H       1.45061869      -0.25326450       1.74854855        1 
H       1.00177141      -3.85865865      -1.03847865        1 
H      -3.68780615      -2.46558775       1.47834908        1 
H      -0.59799449       3.40738425      -0.07348482        1 
H      -1.01028396       2.68822709       1.48741389        1 
H       1.69207230       3.18704769       0.48720738        1 
H       1.34495613       2.18122657       1.88737726        1 
H      -0.17480535      -3.21618281      -2.22774852        1 
H       1.55212925      -2.75263834      -2.32063858        1 
H      -2.86893276      -3.19186680       0.07668653        1 
H      -4.27648556      -2.11055385      -0.17517817        1 
C      -2.01509310       1.31733833      -1.02456849        6 
C       2.77221783       1.07336631      -0.65626321        6 
O       3.71778598       1.09440483       0.39703320        8 
H       2.87371511       1.96447872      -1.29309198        1 
H       2.90900038       0.18836591      -1.28629013        1 
C       5.01299918       0.68410615      -0.00406169        6 
H       5.65055292       0.73616993       0.87872932        1 
H       5.42283426       1.34654671      -0.77985744        1 
H       4.99640896      -0.34690997      -0.37768415        1 
O      -3.09168731       1.70637845      -0.18925001        8 
H      -2.21097718       0.34958957      -1.49539430        1 
H      -1.85086200       2.06498964      -1.81423568        1 
C      -4.34883983       1.58436234      -0.82062167        6 
H      -5.10393683       1.90400815      -0.10172832        1 
H      -4.54643163       0.54386183      -1.11287925        1 
H      -4.41508304       2.22030954      -1.71514043        1 
