43
Lattice="0.0 0.0 0.0 0.0 0.0 0.0 0.0 0.0 0.0" Properties=species:S:1:pos:R:3:Z:I:1 pbc="F F F"
C      -0.74052144       0.14545985       0.94805163        6 
C       0.83338526       0.04677416       0.89786465        6 
C      -1.57544419      -1.11898471       0.86161570        6 
C       1.43596294      -1.28389627       0.46973274        6 
O      -1.28279667      -1.89035297      -0.20363969        8 
O      -2.45808885      -1.38377621       1.64135808        8 
O       1.35424056      -1.52203339      -0.84940845        8 
O       2.01161499      -2.01874979       1.23846102        8 
C       1.87695235      -2.78139872      -1.29608762        6 
C      -2.06450433      -3.08890117      -0.35209695        6 
C      -1.02217739       1.22531775      -0.17320135        6 
C      -0.77692133       2.60070275       0.48195762        6 
C       0.76395050       2.55718758       0.66841476        6 
C       1.14096792       1.23956062      -0.06744666        6 
O       0.10378264       1.10841283      -1.05048213        8 
H      -1.02868413       0.56270449       1.91024610        1 
H       1.24595460       0.22597243       1.88753819        1 
H       1.36060306      -3.60462964      -0.79896457        1 
H      -3.12112128      -2.84456784      -0.47431076        1 
H      -1.07251595       3.39046576      -0.21150688        1 
H      -1.33525901       2.73343655       1.40807283        1 
H       1.25322343       3.40588684       0.18816681        1 
H       1.07579484       2.54392335       1.71307605        1 
H       1.69278241      -2.80649180      -2.36821585        1 
H       2.94578251      -2.85509661      -1.08717660        1 
H      -1.94489303      -3.73237609       0.52049933        1 
H      -1.67831597      -3.57533117      -1.24539707        1 
C      -2.29972415       1.08698902      -0.97208491        6 
C       2.49951990       1.25911893      -0.73969595        6 
O       3.47290631       1.22870341       0.29045538        8 
H       2.59269840       2.17549630      -1.34052404        1 
H       2.60834416       0.39880464      -1.40748186        1 
C       4.79796429       1.14944619      -0.19874722        6 
H       5.45764234       1.10390910       0.66765447        1 
H       5.05630130       2.03023525      -0.80316396        1 
H       4.94299548       0.24711312      -0.80877401        1 
O      -3.38125205       1.30865323      -0.08714103        8 
H      -2.35577196       0.08904971      -1.42520651        1 
H      -2.29493958       1.82820128      -1.78467555        1 
C      -4.64070385       1.00969230      -0.65612232        6 
H      -5.39187416       1.20459056       0.10895377        1 
H      -4.70062978      -0.04580218      -0.95549745        1 
H      -4.84647391       1.63964068      -1.53316552        1 
