43
Lattice="0.0 0.0 0.0 0.0 0.0 0.0 0.0 0.0 0.0" Properties=species:S:1:pos:R:3:Z:I:1 pbc="F F F"
C      -0.76780577      -0.05258792      -0.76812810        6 
C       0.78812733       0.12139351      -0.77106424        6 
C      -1.56565580       1.20699624      -0.47944075        6 
C       1.32777521       1.32246584      -0.01462700        6 
O      -1.02107144       2.24330091      -1.16164435        8 
O      -2.60479746       1.29671022       0.12302987        8 
O       0.60183680       1.60304437       1.08644508        8 
O       2.33532382       1.91601966      -0.31372613        8 
C       1.04813921       2.71555125       1.87832791        6 
C      -1.70922916       3.50110872      -1.06213811        6 
C      -0.95596778      -1.33298458       0.11512258        6 
C      -0.64542721      -2.54369797      -0.79810188        6 
C       0.88900982      -2.39886892      -0.98533055        6 
C       1.20625281      -1.20624548      -0.04538348        6 
O       0.20139243      -1.31612162       0.97177756        8 
H      -1.08409120      -0.29210565      -1.78822308        1 
H       1.20999874       0.17622512      -1.77116464        1 
H       1.06778722       3.62649460       1.27738109        1 
H      -1.73903229       3.83669952      -0.02398375        1 
H      -0.89685994      -3.46503860      -0.26964511        1 
H      -1.21425074      -2.52428660      -1.72715076        1 
H       1.42343430      -3.28833606      -0.64857088        1 
H       1.19387721      -2.20083500      -2.01298961        1 
H       0.32679946       2.80246953       2.68768056        1 
H       2.04781075       2.52726745       2.27302661        1 
H      -2.72933532       3.40968495      -1.43813998        1 
H      -1.13447475       4.19416612      -1.67246929        1 
C      -2.20981954      -1.47358428       0.95075045        6 
C       2.58559816      -1.23638501       0.57893084        6 
O       3.52525460      -1.23168277      -0.47794524        8 
H       2.68222025      -2.14547881       1.19044035        1 
H       2.73546197      -0.37204613       1.23904488        1 
C       4.85143583      -0.99047156      -0.04556294        6 
H       5.48513767      -1.01383761      -0.93205596        1 
H       5.19133566      -1.76271337       0.65923737        1 
H       4.93687805      -0.00554755       0.43141595        1 
O      -3.29261636      -1.65889643       0.05433582        8 
H      -2.36104505      -0.58639150       1.57072746        1 
H      -2.09547434      -2.34887299       1.60693406        1 
C      -4.55364492      -1.42907129       0.65510757        6 
H      -5.30926838      -1.60027778      -0.11233537        1 
H      -4.62961163      -0.39630149       1.01565940        1 
H      -4.73269707      -2.12058770       1.49101831        1 
