43
Lattice="0.0 0.0 0.0 0.0 0.0 0.0 0.0 0.0 0.0" Properties=species:S:1:pos:R:3:Z:I:1 pbc="F F F"
C      -0.50015822      -0.01208960       0.82081222        6 
C       0.99185024      -0.42317289       0.67726421        6 
C      -1.49305445      -1.13268181       1.06662614        6 
C       1.28302360      -1.52154101      -0.35840414        6 
O      -2.75228777      -0.78365353       0.73769485        8 
O      -1.20861714      -2.19116389       1.56856617        8 
O       0.18607422      -2.19362028      -0.74622728        8 
O       2.35030220      -1.67841156      -0.90342367        8 
C       0.36778210      -3.15550825      -1.79894070        6 
C      -3.77484658      -1.74900249       1.04188565        6 
C      -0.64703017       1.17043700      -0.21716107        6 
C      -0.32595596       2.44102055       0.59181962        6 
C       1.14127259       2.12976133       0.99766484        6 
C       1.50442500       0.93381163       0.05874746        6 
O       0.55029129       1.05808994      -1.01748009        8 
H      -0.56256366       0.46711866       1.80664157        1 
H       1.46956949      -0.67532873       1.62249139        1 
H       1.10358451      -3.90582872      -1.50756621        1 
H      -3.80989603      -1.94500502       2.11457222        1 
H      -0.38470702       3.31481004      -0.05940368        1 
H      -1.00403160       2.59031272       1.43207721        1 
H       1.80608843       2.97136639       0.80507598        1 
H       1.25490024       1.86541949       2.05031729        1 
H      -0.60869951      -3.61368189      -1.94124747        1 
H       0.70020769      -2.65978841      -2.71252041        1 
H      -3.58795939      -2.68504514       0.51319037        1 
H      -4.70568276      -1.29660742       0.70625829        1 
C      -1.83895989       1.24441518      -1.14965908        6 
C       2.91905204       1.03152494      -0.47766085        6 
O       3.79146883       0.82458408       0.62089541        8 
H       3.05731731       2.03956001      -0.89752099        1 
H       3.09688536       0.29712139      -1.26297802        1 
C       5.14144913       0.66344191       0.22736281        6 
H       5.72497616       0.51140292       1.13588574        1 
H       5.51752659       1.55579126      -0.29353674        1 
H       5.25848597      -0.20839529      -0.42878026        1 
O      -2.91209016       1.87044179      -0.47026687        8 
H      -2.12432264       0.24375329      -1.49433516        1 
H      -1.54085518       1.83939269      -2.02472435        1 
C      -4.13458935       1.77161046      -1.16857017        6 
H      -4.88997861       2.28181772      -0.57005994        1 
H      -4.43094870       0.72202700      -1.30488255        1 
H      -4.07749413       2.25163437      -2.15635496        1 
