43
Lattice="0.0 0.0 0.0 0.0 0.0 0.0 0.0 0.0 0.0" Properties=species:S:1:pos:R:3:Z:I:1 pbc="F F F"
C      -0.88170989       0.08344617      -0.67588209        6 
C       0.68910023       0.17610893      -0.70608025        6 
C      -1.60695401       1.22810961       0.02048545        6 
C       1.28196095       1.46098655      -0.14126946        6 
O      -2.03596659       2.12160708      -0.89503454        8 
O      -1.83293463       1.32087993       1.20091132        8 
O       2.62967031       1.41382902      -0.13396750        8 
O       0.66693836       2.44936989       0.17303798        8 
C       3.29800235       2.61330422       0.29812203        6 
C      -2.64704537       3.30718111      -0.36079995        6 
C      -1.08527088      -1.30365204       0.01475747        6 
C      -0.73085830      -2.39673138      -1.02440273        6 
C       0.81732257      -2.31613507      -1.04556771        6 
C       1.08334762      -1.18681508      -0.01650067        6 
O       0.02113830      -1.36612578       0.92962829        8 
H      -1.26347283       0.05952886      -1.69434116        1 
H       1.04249328       0.15890532      -1.73938377        1 
H       3.01430060       2.86236659       1.32186044        1 
H      -1.94365343       3.82226553       0.29500621        1 
H      -1.07483760      -3.36945735      -0.66831200        1 
H      -1.19651369      -2.21170267      -1.99233109        1 
H       1.27235259      -3.24323943      -0.69398202        1 
H       1.24036124      -2.09150010      -2.02427825        1 
H       4.36058283       2.38865658       0.23666413        1 
H       3.04396915       3.44813049      -0.35670462        1 
H      -3.54952125       3.05569531       0.19907635        1 
H      -2.89222750       3.92264196      -1.22397463        1 
C      -2.38190564      -1.53209475       0.76510874        6 
C       2.40606728      -1.31964053       0.71071464        6 
O       3.43637984      -1.41713332      -0.25490605        8 
H       2.35936239      -2.23355654       1.32077700        1 
H       2.57689008      -0.47195978       1.38248564        1 
C       4.72718634      -1.31735712       0.30887136        6 
H       5.44430100      -1.40931594      -0.50724453        1 
H       4.91206937      -2.11741640       1.04004490        1 
H       4.86864466      -0.34755158       0.80584568        1 
O      -3.44080839      -1.30045460      -0.15241401        8 
H      -2.44516190      -0.85090992       1.61706555        1 
H      -2.40645135      -2.56849819       1.13181437        1 
C      -4.71722106      -1.36624560       0.45480607        6 
H      -5.45435919      -1.16564288      -0.32318050        1 
H      -4.81666769      -0.61637002       1.25070499        1 
H      -4.90737138      -2.36177994       0.88032262        1 
