43
Lattice="0.0 0.0 0.0 0.0 0.0 0.0 0.0 0.0 0.0" Properties=species:S:1:pos:R:3:Z:I:1 pbc="F F F"
C      -0.81897695      -0.09385094       0.81245389        6 
C       0.74890043       0.10281359       0.77904753        6 
C      -1.29328382      -1.40796854       0.21597980        6 
C       1.53757073      -1.10011035       0.30155756        6 
O      -1.25723174      -1.42492549      -1.12421257        8 
O      -1.67200508      -2.33939496       0.88783370        8 
O       2.07846722      -1.74328564       1.35880000        8 
O       1.65816087      -1.48563395      -0.83621082        8 
C       2.80263271      -2.94942278       1.05945870        6 
C      -1.58349037      -2.67335748      -1.75760941        6 
C      -1.27209292       1.20768546       0.07568792        6 
C      -0.97630646       2.40548168       1.02265514        6 
C       0.55564685       2.58738546       0.83007464        6 
C       0.87839038       1.39451800      -0.09945906        6 
O      -0.27780219       1.35643059      -0.94562969        8 
H      -1.17391622      -0.10847857       1.83967521        1 
H       1.09867402       0.30672692       1.78834372        1 
H       3.64642974      -2.73413145       0.40203299        1 
H      -2.57696566      -3.01144290      -1.45882140        1 
H      -1.52935270       3.28578569       0.69163831        1 
H      -1.26834163       2.19805234       2.05242403        1 
H       0.78337431       3.52159148       0.31284780        1 
H       1.12682607       2.56469630       1.75807078        1 
H       3.14950428      -3.32482098       2.01954865        1 
H       2.14683946      -3.67671911       0.57801977        1 
H      -0.84576426      -3.43110022      -1.48938313        1 
H      -1.54548435      -2.47267528      -2.82589141        1 
C      -2.65245650       1.20150268      -0.54999559        6 
C       2.12590607       1.50672347      -0.94919775        6 
O       3.23912216       1.31893564      -0.08771780        8 
H       2.16410574       2.49587237      -1.42671821        1 
H       2.10366877       0.73774237      -1.72832309        1 
C       4.46281059       1.18532885      -0.78686050        6 
H       5.24380660       1.03752332      -0.04055199        1 
H       4.69208731       2.08718039      -1.37121001        1 
H       4.43764814       0.32069834      -1.46341580        1 
O      -3.57727891       0.86800835       0.47113117        8 
H      -2.68813572       0.47354584      -1.36746010        1 
H      -2.86816395       2.19735075      -0.96360772        1 
C      -4.91014020       0.77877195       0.00483838        6 
H      -5.53158791       0.50623884       0.85780628        1 
H      -5.01024662       0.00906986      -0.77279442        1 
H      -5.25716854       1.73885851      -0.40220014        1 
