43
Lattice="0.0 0.0 0.0 0.0 0.0 0.0 0.0 0.0 0.0" Properties=species:S:1:pos:R:3:Z:I:1 pbc="F F F"
C      -0.74028227      -0.12678770       0.75051285        6 
C       0.83181490      -0.00249332       0.72598216        6 
C      -1.22796063      -1.50143313       0.30499867        6 
C       1.55190927      -1.15790496       0.05723402        6 
O      -2.35814220      -1.49258970      -0.41603177        8 
O      -0.66431297      -2.52095578       0.62627435        8 
O       2.32004951      -1.82226805       0.93783940        8 
O       1.48207152      -1.43670887      -1.11660963        8 
C       2.99160060      -2.98401928       0.42376517        6 
C      -2.86017276      -2.78290172      -0.81643369        6 
C      -1.16074236       1.19519532       0.02759899        6 
C      -0.87261629       2.36201276       1.01722101        6 
C       0.67034760       2.48990287       0.91838624        6 
C       1.00302295       1.34363282      -0.06337270        6 
O      -0.12449938       1.35218777      -0.95153581        8 
H      -1.07595947      -0.08255634       1.79033474        1 
H       1.22792651       0.09182401       1.73320201        1 
H       3.66995144      -2.70915687      -0.38599921        1 
H      -3.10636424      -3.38429849       0.05963363        1 
H      -1.37021406       3.26772089       0.66724784        1 
H      -1.23803895       2.15167908       2.02233542        1 
H       0.96233643       3.44600262       0.47966453        1 
H       1.18939244       2.38353284       1.87086093        1 
H       3.54637144      -3.39465085       1.26471591        1 
H       2.26042788      -3.70550267       0.05580078        1 
H      -2.11759478      -3.30666276      -1.41911732        1 
H      -3.75344089      -2.57408834      -1.40136140        1 
C      -2.51027961       1.30148962      -0.65216175        6 
C       2.27315269       1.50741311      -0.87232873        6 
O       3.36617771       1.29883897       0.00790050        8 
H       2.30352050       2.51938893      -1.30087226        1 
H       2.28431588       0.78026853      -1.69081620        1 
C       4.61738969       1.30934468      -0.65219006        6 
H       5.37987745       1.11419094       0.10225020        1 
H       4.81628347       2.28374441      -1.12013710        1 
H       4.66541280       0.53051093      -1.42544027        1 
O      -3.50520214       1.17821376       0.35049982        8 
H      -2.62185497       0.52901512      -1.41617756        1 
H      -2.57209114       2.28635138      -1.13815651        1 
C      -4.81259986       1.10244371      -0.17930970        6 
H      -5.49820685       1.00786725       0.66329818        1 
H      -4.92496952       0.22825976      -0.83514296        1 
H      -5.06966502       2.00657030      -0.74965949        1 
