43
Lattice="0.0 0.0 0.0 0.0 0.0 0.0 0.0 0.0 0.0" Properties=species:S:1:pos:R:3:Z:I:1 pbc="F F F"
C      -0.75935892      -0.05561342       0.78732611        6 
C       0.80775446      -0.00914236       0.87322880        6 
C      -1.31318170      -1.26068918       0.05266686        6 
C       1.43037462      -1.38694054       0.68300440        6 
O      -2.57374986      -1.52200629       0.45671611        8 
O      -0.74334923      -1.90804425      -0.79139448        8 
O       2.20625323      -1.53137444      -0.39722105        8 
O       1.22235181      -2.27336406       1.47897926        8 
C       2.68359399      -2.86512707      -0.64916822        6 
C      -3.22572447      -2.62891827      -0.19059724        6 
C      -1.03254034       1.25410688      -0.03725647        6 
C      -0.70439967       2.46829886       0.86840038        6 
C       0.84611530       2.48445324       0.81058395        6 
C       1.13820756       1.22017214      -0.03724776        6 
O       0.04817494       1.24070711      -0.97786585        8 
H      -1.23471212      -0.00592599       1.76368007        1 
H       1.08057853       0.23237955       1.90161467        1 
H       1.83704354      -3.53624473      -0.79891297        1 
H      -2.66775802      -3.55105066      -0.02203812        1 
H      -1.13622202       3.37678692       0.44581269        1 
H      -1.10627622       2.34656947       1.87411481        1 
H       1.21394891       3.36539121       0.28149363        1 
H       1.32731524       2.45374331       1.78789096        1 
H       3.27909136      -2.79172825      -1.55695682        1 
H       3.29144217      -3.22064804       0.18381839        1 
H      -3.30764583      -2.45166884      -1.26470908        1 
H      -4.21235228      -2.68857862       0.26363823        1 
C      -2.34588799       1.35014886      -0.78611451        6 
C       2.45397598       1.25354654      -0.78450838        6 
O       3.48797541       1.15195167       0.18197672        8 
H       2.52951502       2.20341655      -1.33373960        1 
H       2.50093551       0.42894429      -1.49903921        1 
C       4.75997784       0.92771573      -0.39236472        6 
H       5.47518578       0.85280617       0.42734075        1 
H       5.05720300       1.75568389      -1.05154500        1 
H       4.77343145      -0.00672680      -0.96930883        1 
O      -3.38098302       1.50571611       0.16475092        8 
H      -2.50777546       0.45614689      -1.40364696        1 
H      -2.30038294       2.21604499      -1.46273480        1 
C      -4.67159768       1.38855451      -0.39950896        6 
H      -5.38982858       1.52614920       0.40881371        1 
H      -4.81914056       0.39580383      -0.84685469        1 
H      -4.84624551       2.15342954      -1.16940731        1 
