43
Lattice="0.0 0.0 0.0 0.0 0.0 0.0 0.0 0.0 0.0" Properties=species:S:1:pos:R:3:Z:I:1 pbc="F F F"
C      -0.87445553      -0.04277993      -0.72555192        6 
C       0.70070305      -0.03870566      -0.86081810        6 
C      -1.48169276       1.21901841      -0.12376424        6 
C       1.39319434       1.26028411      -0.49517916        6 
O      -1.07681864       2.28894331      -0.84147190        8 
O      -2.27985837       1.30140255       0.77496562        8 
O       1.31020148       1.52378163       0.82908327        8 
O       1.91581721       2.00253256      -1.28666126        8 
C       1.87365614       2.77445128       1.25700194        6 
C      -1.59611262       3.56680338      -0.43810859        6 
C      -1.09795575      -1.37817499       0.04416415        6 
C      -0.75431013      -2.54101452      -0.93195291        6 
C       0.79672357      -2.53534549      -0.90344527        6 
C       1.07073445      -1.30613369      -0.00724470        6 
O       0.01123812      -1.38848406       0.95675391        8 
H      -1.31581114      -0.10071546      -1.72213370        1 
H       0.97986610      -0.20063991      -1.89932390        1 
H       1.40976430       3.60317591       0.71997208        1 
H      -1.36919701       3.75711298       0.61206176        1 
H      -1.16064913      -3.47745040      -0.54718485        1 
H      -1.17533591      -2.38136559      -1.92482749        1 
H       1.18971098      -3.43155159      -0.41949335        1 
H       1.26113314      -2.44780296      -1.88559051        1 
H       1.66306840       2.83862939       2.32234177        1 
H       2.94971326       2.79201588       1.07496936        1 
H      -2.67754718       3.60017823      -0.58148911        1 
H      -1.10109788       4.29309413      -1.07873398        1 
C      -2.39380992      -1.57335817       0.80499506        6 
C       2.40455988      -1.29668047       0.71037267        6 
O       3.40442769      -1.02557955      -0.25664764        8 
H       2.57089370      -2.27544143       1.18287795        1 
H       2.39805167      -0.53158251       1.49442098        1 
C       4.69164598      -0.85707490       0.30482787        6 
H       5.37706042      -0.65454925      -0.51803464        1 
H       5.02086989      -1.76194519       0.83426525        1 
H       4.71222653      -0.01124383       1.00611537        1 
O      -3.44885784      -1.47358457      -0.13872550        8 
H      -2.49347107      -0.81796723       1.58646531        1 
H      -2.38310454      -2.57064896       1.26923768        1 
C      -4.72607026      -1.42850491       0.46892038        6 
H      -5.46104169      -1.34974438      -0.33277990        1 
H      -4.81636250      -0.55777324       1.13071774        1 
H      -4.92691418      -2.34091200       1.04865070        1 
