43
Lattice="0.0 0.0 0.0 0.0 0.0 0.0 0.0 0.0 0.0" Properties=species:S:1:pos:R:3:Z:I:1 pbc="F F F"
C      -0.89126191      -0.02692815       0.86853912        6 
C       0.67432341       0.11025688       0.89249430        6 
C      -1.45495233      -1.32929726       0.33438632        6 
C       1.36842727      -1.24136972       0.79487933        6 
O      -0.77510114      -1.78756664      -0.73834727        8 
O      -2.45242896      -1.85673086       0.76043697        8 
O       2.36243236      -1.31605643      -0.10138579        8 
O       1.04860406      -2.16767884       1.50299270        8 
C       3.03074095      -2.58789164      -0.19112507        6 
C      -1.23436829      -3.03063408      -1.29373534        6 
C      -1.26603913       1.16966718      -0.07851529        6 
C      -1.02246028       2.48541505       0.69809487        6 
C       0.52465842       2.59063964       0.64347464        6 
C       0.90254793       1.28963985      -0.11292136        6 
O      -0.19527652       1.15327743      -1.03322523        8 
H      -1.33314920       0.10296316       1.85252597        1 
H       0.96620161       0.44879667       1.88977685        1 
H       2.32140509      -3.36986024      -0.46570493        1 
H      -2.27677868      -2.95106618      -1.60595443        1 
H      -1.50168022       3.31628382       0.17773750        1 
H      -1.42859496       2.44583870       1.70815977        1 
H       0.84288522       3.45423315       0.05709025        1 
H       0.99912172       2.66014729       1.62218253        1 
H       3.78448620      -2.46347757      -0.96577724        1 
H       3.49641151      -2.84346548       0.76145975        1 
H      -1.13937429      -3.82902402      -0.55589730        1 
H      -0.59218079      -3.21987724      -2.15148060        1 
C      -2.59713611       1.07766661      -0.79544701        6 
C       2.19738653       1.38444094      -0.89055512        6 
O       3.24804957       1.53620987       0.04957874        8 
H       2.14341850       2.26052346      -1.55333780        1 
H       2.34363021       0.49199048      -1.50332137        1 
C       4.52908398       1.43345870      -0.53712668        6 
H       5.26127658       1.56201539       0.26056125        1 
H       4.68799947       2.21151835      -1.29730061        1 
H       4.67247887       0.44917475      -1.00383594        1 
O      -3.61267122       1.19929806       0.18058748        8 
H      -2.67836976       0.12386256      -1.33327553        1 
H      -2.66155430       1.88616711      -1.53845999        1 
C      -4.88752237       0.79377723      -0.28285588        6 
H      -5.58614743       0.93377248       0.54181679        1 
H      -4.88096530      -0.26526243      -0.57098517        1 
H      -5.21541982       1.39993341      -1.13919813        1 
