43
Lattice="0.0 0.0 0.0 0.0 0.0 0.0 0.0 0.0 0.0" Properties=species:S:1:pos:R:3:Z:I:1 pbc="F F F"
C      -0.76479992       0.20880366       0.94213835        6 
C       0.81419042       0.10672932       0.88176372        6 
C      -1.48266025      -1.12242078       0.86464873        6 
C       1.28292130      -1.28605806       0.48142839        6 
O      -1.49290287      -1.63197053      -0.38884524        8 
O      -1.91809791      -1.70905109       1.82118642        8 
O       1.70042794      -1.39753727      -0.79042900        8 
O       1.23299430      -2.22357886       1.24161556        8 
C       2.05733321      -2.72256525      -1.22053372        6 
C      -2.04571541      -2.95355092      -0.51952000        6 
C      -1.04288533       1.29828610      -0.15514112        6 
C      -0.79202761       2.66038198       0.52733012        6 
C       0.74771806       2.60853293       0.71427981        6 
C       1.12540732       1.30777739      -0.05642993        6 
O       0.08348703       1.20128821      -1.04106605        8 
H      -1.05250704       0.59817812       1.91625906        1 
H       1.22774334       0.26321393       1.87638104        1 
H       1.19469267      -3.38676683      -1.14956959        1 
H      -3.09740974      -2.95948395      -0.22813951        1 
H      -1.08262016       3.46562965      -0.15045298        1 
H      -1.34955595       2.77701181       1.45683551        1 
H       1.23867000       3.46933524       0.25818536        1 
H       1.05693888       2.56629752       1.75939237        1 
H       2.37097651      -2.61485440      -2.25677941        1 
H       2.86821027      -3.12112607      -0.60945918        1 
H      -1.49509503      -3.65442478       0.10957942        1 
H      -1.93941356      -3.20969013      -1.57188992        1 
C      -2.32473241       1.16944459      -0.95086176        6 
C       2.48468711       1.34656448      -0.73021599        6 
O       3.45718930       1.10099752       0.27367353        8 
H       2.64000432       2.33592959      -1.18415430        1 
H       2.53348544       0.58969645      -1.51665170        1 
C       4.77358616       1.02699503      -0.23811069        6 
H       5.43702004       0.83375891       0.60509038        1 
H       5.07084814       1.96872092      -0.72023274        1 
H       4.87063033       0.21116137      -0.96765945        1 
O      -3.38817175       1.04856252      -0.02104538        8 
H      -2.26822936       0.28684248      -1.59634468        1 
H      -2.45652528       2.06005633      -1.58201790        1 
C      -4.64423847       0.84056247      -0.63775607        6 
H      -5.38047651       0.73849851       0.15946086        1 
H      -4.64275704      -0.07423641      -1.24650900        1 
H      -4.92175969       1.68922541      -1.27832907        1 
