43
Lattice="0.0 0.0 0.0 0.0 0.0 0.0 0.0 0.0 0.0" Properties=species:S:1:pos:R:3:Z:I:1 pbc="F F F"
C      -0.76557785      -0.00871997      -0.81572433        6 
C       0.79597431       0.09434969      -0.80385158        6 
C      -1.60833552       1.24481046      -0.63011956        6 
C       1.41480415       1.30439610      -0.12089815        6 
O      -0.87973071       2.37582251      -0.65341395        8 
O      -2.81607243       1.24824969      -0.63114642        8 
O       0.99935050       1.45528891       1.15273228        8 
O       2.24496122       2.01315742      -0.63603391        8 
C       1.50890035       2.60453059       1.84407488        6 
C      -1.61152551       3.61431380      -0.64878539        6 
C      -1.02638134      -1.24668133       0.12738150        6 
C      -0.78137218      -2.51312191      -0.72387952        6 
C       0.75503935      -2.43705358      -0.93409901        6 
C       1.13804801      -1.22878947      -0.03650471        6 
O       0.12825799      -1.24932916       0.98272472        8 
H      -1.07064293      -0.30476951      -1.82401895        1 
H       1.20819806       0.08820253      -1.80968806        1 
H       1.22432030       3.51853119       1.31913148        1 
H      -2.17222888       3.71957147       0.28133409        1 
H      -1.06298206      -3.39436549      -0.14534607        1 
H      -1.36218420      -2.51813470      -1.64507582        1 
H       1.25794865      -3.33819064      -0.58010553        1 
H       1.05020640      -2.28264305      -1.97226159        1 
H       1.05602371       2.57377238       2.83285755        1 
H       2.59694315       2.56254915       1.91895174        1 
H      -2.30300985       3.65133673      -1.49153444        1 
H      -0.85664272       4.39259729      -0.73496021        1 
C      -2.28580312      -1.27100172       0.96861226        6 
C       2.51699880      -1.31477486       0.58497514        6 
O       3.45184262      -1.34010717      -0.47808101        8 
H       2.58295223      -2.23010420       1.19113279        1 
H       2.69900405      -0.45930871       1.24715938        1 
C       4.79374087      -1.22543746      -0.04435122        6 
H       5.42080975      -1.25015177      -0.93549636        1 
H       5.07495967      -2.05703160       0.61712360        1 
H       4.95961088      -0.27716150       0.48455786        1 
O      -3.35696422      -1.67211795       0.13553443        8 
H      -2.47762209      -0.28737512       1.41160925        1 
H      -2.14011754      -1.99074282       1.78742859        1 
C      -4.62835971      -1.34481654       0.66398423        6 
H      -5.37197428      -1.72336773      -0.03780966        1 
H      -4.74271007      -0.25823011       0.75909291        1 
H      -4.79009600      -1.81631609       1.64410381        1 
