43
Lattice="0.0 0.0 0.0 0.0 0.0 0.0 0.0 0.0 0.0" Properties=species:S:1:pos:R:3:Z:I:1 pbc="F F F"
C      -0.77485761      -0.08615812       0.79170230        6 
C       0.79183218       0.08840705       0.73286231        6 
C      -1.43519333      -1.34120098       0.25058501        6 
C       1.58775198      -1.07989678       0.17198275        6 
O      -0.71159664      -1.97497113      -0.68288665        8 
O      -2.54640408      -1.69014263       0.57510578        8 
O       1.77816258      -1.99006013       1.15860856        8 
O       1.98738658      -1.23903079      -0.95190763        8 
C       2.43078361      -3.20925094       0.76840830        6 
C      -1.30364567      -3.13556980      -1.29009653        6 
C      -1.23933000       1.19826978      -0.00704977        6 
C      -1.03345109       2.41988601       0.91943044        6 
C       0.50920012       2.57659157       0.87710221        6 
C       0.91646601       1.42088604      -0.07293689        6 
O      -0.19859880       1.35132708      -0.97804281        8 
H      -1.12671525      -0.01521061       1.81900900        1 
H       1.16184760       0.22921231       1.74735259        1 
H       3.42757564      -3.00403180       0.37501605        1 
H      -2.22593902      -2.86577974      -1.80659506        1 
H      -1.53839807       3.28921438       0.49501197        1 
H      -1.43991529       2.25245927       1.91629181        1 
H       0.80059910       3.53233871       0.43812294        1 
H       0.98904730       2.49755479       1.85255482        1 
H       2.49292593      -3.80992581       1.67338346        1 
H       1.84407768      -3.72443942       0.00534017        1 
H      -1.52353160      -3.89144638      -0.53457131        1 
H      -0.56041372      -3.49675447      -1.99740885        1 
C      -2.58462209       1.14708715      -0.70237996        6 
C       2.19867253       1.65369668      -0.84620768        6 
O       3.26788980       1.52822364       0.08102028        8 
H       2.18083155       2.66295511      -1.28201489        1 
H       2.28905251       0.91866001      -1.64902825        1 
C       4.53962624       1.55728213      -0.53886399        6 
H       5.28416994       1.44184953       0.24942066        1 
H       4.71184346       2.51163046      -1.05627089        1 
H       4.64519754       0.73720676      -1.26103980        1 
O      -3.58617346       1.22688492       0.29229542        8 
H      -2.68511698       0.22733081      -1.29222300        1 
H      -2.65098848       1.99690102      -1.39715398        1 
C      -4.85189096       0.76621675      -0.14462429        6 
H      -5.54057650       0.88765792       0.69151570        1 
H      -4.80632466      -0.29436661      -0.42039609        1 
H      -5.21993691       1.35084527      -0.99976077        1 
