43
Lattice="0.0 0.0 0.0 0.0 0.0 0.0 0.0 0.0 0.0" Properties=species:S:1:pos:R:3:Z:I:1 pbc="F F F"
C      -0.72222289      -0.05039231       0.82483533        6 
C       0.85143077      -0.02537015       0.89371848        6 
C      -1.35300777      -1.35314450       0.35044462        6 
C       1.56698780      -1.33552812       0.58832730        6 
O      -2.69940525      -1.25018623       0.34117584        8 
O      -0.78292392      -2.38517855       0.10041427        8 
O       1.73670034      -1.56402844      -0.72649939        8 
O       1.97535152      -2.06984674       1.45399392        8 
C       2.26704769      -2.85468576      -1.06786679        6 
C      -3.42108872      -2.44514665      -0.00784443        6 
C      -0.99793990       1.22241672      -0.06303870        6 
C      -0.69095391       2.46993387       0.80748199        6 
C       0.85951436       2.47742241       0.80552920        6 
C       1.17392489       1.20595255      -0.01949804        6 
O       0.10383298       1.19078923      -0.97944694        8 
H      -1.14697259       0.11143782       1.81700369        1 
H       1.15585044       0.18805098       1.91651316        1 
H       1.57193061      -3.63054645      -0.74365858        1 
H      -3.17584407      -3.25472215       0.68086848        1 
H      -1.09837955       3.36134192       0.32878387        1 
H      -1.13282134       2.39680912       1.80059831        1 
H       1.25162227       3.35477321       0.28791227        1 
H       1.30279649       2.44723203       1.80061760        1 
H       2.36122289      -2.85316814      -2.15209490        1 
H       3.23751467      -3.01187300      -0.59481541        1 
H      -3.17874090      -2.75563205      -1.02569518        1 
H      -4.47310308      -2.17974657       0.07161719        1 
C      -2.28407952       1.33313064      -0.85787947        6 
C       2.50510969       1.22067139      -0.74485638        6 
O       3.51410791       0.97315033       0.21966490        8 
H       2.65213718       2.20203725      -1.21873419        1 
H       2.50953018       0.45177060      -1.52201005        1 
C       4.78913407       0.75845965      -0.35386244        6 
H       5.48265780       0.57095795       0.46589734        1 
H       5.12949485       1.63712506      -0.91950519        1 
H       4.77973799      -0.11173297      -1.02440416        1 
O      -3.33996809       1.61329890       0.04068481        8 
H      -2.48151866       0.41600119      -1.42424382        1 
H      -2.16121407       2.15516565      -1.57806327        1 
C      -4.61294271       1.53642340      -0.56626118        6 
H      -5.35129663       1.76415946       0.20288815        1 
H      -4.80370242       0.52929289      -0.96204119        1 
H      -4.71453211       2.26222768      -1.38595638        1 
