43
Lattice="0.0 0.0 0.0 0.0 0.0 0.0 0.0 0.0 0.0" Properties=species:S:1:pos:R:3:Z:I:1 pbc="F F F"
C      -0.88103889       0.09702975      -0.54918795        6 
C       0.69323688      -0.00590247      -0.66214388        6 
C      -1.38022892       1.18052263       0.40785394        6 
C       1.47527028       1.23782651      -0.28482245        6 
O      -1.00044469       2.40154962      -0.02909505        8 
O      -2.06541711       1.03167651       1.38731662        8 
O       1.47462377       2.09633430      -1.32646375        8 
O       2.12205097       1.42320993       0.71752076        8 
C       2.15993930       3.33983667      -1.11687515        6 
C      -1.40284962       3.51700873       0.78634763        6 
C      -1.19165935      -1.35325566      -0.08124082        6 
C      -0.76698365      -2.32817108      -1.22176988        6 
C       0.75777847      -2.46377899      -0.98151562        6 
C       0.97665608      -1.36203173       0.07613075        6 
O      -0.17450836      -1.54359760       0.91958883        8 
H      -1.32030214       0.31934249      -1.52170493        1 
H       0.92553924      -0.13704834      -1.71878939        1 
H       3.21865167       3.16621831      -0.91790532        1 
H      -0.95796467       3.43906098       1.77943452        1 
H      -1.28653025      -3.28080225      -1.11388777        1 
H      -1.01558490      -1.92822664      -2.20605634        1 
H       1.00593928      -3.43192744      -0.54178562        1 
H       1.36884146      -2.32607017      -1.87336603        1 
H       2.03056283       3.90250025      -2.03900164        1 
H       1.72119340       3.87875334      -0.27522732        1 
H      -2.48920591       3.55150121       0.87841642        1 
H      -1.03417018       4.39996365       0.26851106        1 
C      -2.56135689      -1.65429415       0.49615888        6 
C       2.24340195      -1.48446852       0.89333859        6 
O       3.33265542      -1.31028808      -0.00119201        8 
H       2.27607798      -2.48124316       1.35605370        1 
H       2.25994033      -0.72677368       1.68051024        1 
C       4.55690155      -1.05408813       0.66261261        6 
H       5.31951421      -0.93307094      -0.10759747        1 
H       4.84192862      -1.88956702       1.31747195        1 
H       4.49278026      -0.13533871       1.25883321        1 
O      -3.51797854      -1.25872418      -0.47698783        8 
H      -2.71150920      -1.11615903       1.43323388        1 
H      -2.63387192      -2.73497214       0.68852014        1 
C      -4.85043163      -1.41423301      -0.02723848        6 
H      -5.50445217      -1.08298737      -0.83446014        1 
H      -5.04121830      -0.80495275       0.86617380        1 
H      -5.07402241      -2.46491548       0.20629371        1 
