43
Lattice="0.0 0.0 0.0 0.0 0.0 0.0 0.0 0.0 0.0" Properties=species:S:1:pos:R:3:Z:I:1 pbc="F F F"
C      -0.71030985       0.00818339      -0.66656560        6 
C       0.85314953       0.14767373      -0.69091696        6 
C      -1.45330989       1.04391026       0.15843442        6 
C       1.46577087       1.47593435      -0.27183735        6 
O      -2.35128259       1.70189287      -0.60447581        8 
O      -1.32424135       1.23412577       1.34315557        8 
O       0.59110380       2.49027070      -0.42016921        8 
O       2.63052805       1.65380877      -0.01137346        8 
C       1.08461833       3.81142331      -0.13970350        6 
C      -3.14983790       2.68083359       0.07756146        6 
C      -0.84358286      -1.41588863      -0.01781170        6 
C      -0.37834246      -2.46018613      -1.06485390        6 
C       1.16534924      -2.32397163      -0.97526309        6 
C       1.31274777      -1.16477806       0.04055120        6 
O       0.22307798      -1.41854905       0.94061195        8 
H      -1.12433043       0.02461409      -1.67096131        1 
H       1.17853749       0.07980354      -1.73361294        1 
H       1.93649338       4.04456941      -0.77979896        1 
H      -2.51741314       3.46717245       0.49384699        1 
H      -0.71371956      -3.45646701      -0.77177876        1 
H      -0.78074884      -2.25415975      -2.05708545        1 
H       1.62345771      -3.22404995      -0.56248375        1 
H       1.65143179      -2.10985853      -1.92649579        1 
H       0.25200510       4.47965598      -0.34802177        1 
H       1.38403088       3.88668630       0.90646319        1 
H      -3.71875680       2.21757453       0.88546037        1 
H      -3.81998382       3.08696698      -0.67724314        1 
C      -2.14704122      -1.73698363       0.68520289        6 
C       2.61946094      -1.16394841       0.80480877        6 
O       3.66924574      -1.19915045      -0.14614592        8 
H       2.64432936      -2.06002244       1.44233273        1 
H       2.69756168      -0.28136851       1.44579495        1 
C       4.91692778      -0.79946388       0.39036102        6 
H       5.65088619      -0.88273702      -0.41182522        1 
H       5.22260399      -1.44976379       1.22257372        1 
H       4.87537721       0.23967497       0.73716559        1 
O      -3.19152627      -1.59343788      -0.26366759        8 
H      -2.29198241      -1.06365546       1.53763860        1 
H      -2.10391410      -2.76763573       1.06576809        1 
C      -4.47504880      -1.80192999       0.29250066        6 
H      -5.19985493      -1.65911559      -0.50921716        1 
H      -4.68205521      -1.08418403       1.09838776        1 
H      -4.57887168      -2.81998274       0.69341785        1 
