43
Lattice="0.0 0.0 0.0 0.0 0.0 0.0 0.0 0.0 0.0" Properties=species:S:1:pos:R:3:Z:I:1 pbc="F F F"
C      -0.65299607      -0.00994642      -0.72206440        6 
C       0.91333376       0.12848272      -0.64295506        6 
C      -1.44953311       1.14007179      -0.14498277        6 
C       1.37980468       1.29964907       0.20809939        6 
O      -2.29854054       1.63712870      -1.06862321        8 
O      -1.35702662       1.58108842       0.97522041        8 
O       1.31925430       2.43116889      -0.53554460        8 
O       1.70979293       1.28716938       1.36399164        8 
C       1.57349218       3.65623015       0.17539586        6 
C      -3.15254965       2.70522631      -0.62712425        6 
C      -0.86864751      -1.38524515       0.02741791        6 
C      -0.57212276      -2.49156221      -1.00723990        6 
C       0.96575728      -2.33228656      -1.16625526        6 
C       1.29201558      -1.26917749      -0.07691925        6 
O       0.26106675      -1.48107919       0.89981643        8 
H      -0.96147123      -0.11305654      -1.75936123        1 
H       1.32307256       0.27940660      -1.64030226        1 
H       2.57505133       3.64782339       0.60767618        1 
H      -2.55997842       3.55552715      -0.28570596        1 
H      -0.82679229      -3.46297728      -0.57844705        1 
H      -1.13428013      -2.36917614      -1.93281460        1 
H       1.49129144      -3.26339887      -0.95004282        1 
H       1.26969388      -2.00401745      -2.16097784        1 
H       1.48343195       4.44682235      -0.56666168        1 
H       0.83690550       3.78348171       0.97044114        1 
H      -3.79482258       2.36646001       0.18780788        1 
H      -3.74952866       2.97710677      -1.49487576        1 
C      -2.13202860      -1.53322254       0.84697720        6 
C       2.65528833      -1.40728919       0.57090332        6 
O       3.61430349      -0.96020234      -0.37729463        8 
H       2.82944522      -2.46145595       0.83059049        1 
H       2.69591459      -0.80483345       1.48151537        1 
C       4.92923092      -0.93100158       0.14562948        6 
H       5.58172819      -0.55652773      -0.64362699        1 
H       5.26516924      -1.93474962       0.44201802        1 
H       4.99420112      -0.26519522       1.01652117        1 
O      -3.23673372      -1.32893060      -0.01857736        8 
H      -2.13032483      -0.79858221       1.66121510        1 
H      -2.16011437      -2.53965836       1.28809127        1 
C      -4.48028103      -1.36622458       0.65535137        6 
H      -5.25431817      -1.17847844      -0.08908319        1 
H      -4.53372260      -0.59512035       1.43623528        1 
H      -4.65690084      -2.34742779       1.11764234        1 
