43
Lattice="0.0 0.0 0.0 0.0 0.0 0.0 0.0 0.0 0.0" Properties=species:S:1:pos:R:3:Z:I:1 pbc="F F F"
C      -0.84386693       0.22827986      -0.61680334        6 
C       0.71534249       0.11353390      -0.71801985        6 
C      -1.41138492       1.27340629       0.33331075        6 
C       1.55889036       1.29024586      -0.26793036        6 
O      -2.15444149       2.16680405      -0.36912518        8 
O      -1.24500644       1.34703779       1.52085416        8 
O       2.49908160       1.55637652      -1.20668324        8 
O       1.43980803       1.93890225       0.74023000        8 
C       3.41685246       2.61442527      -0.89024984        6 
C      -2.74965172       3.22248678       0.40492269        6 
C      -1.17012850      -1.21336361      -0.09517041        6 
C      -0.76633028      -2.24230202      -1.19251094        6 
C       0.76575173      -2.37192037      -0.95932750        6 
C       0.98644291      -1.24098675       0.06463089        6 
O      -0.16168675      -1.38639175       0.90523880        8 
H      -1.28139741       0.40067685      -1.59714525        1 
H       0.97465786      -0.04228018      -1.76264592        1 
H       3.96582979       2.38305747       0.02436348        1 
H      -1.97870112       3.79992991       0.91737776        1 
H      -1.28558333      -3.18850210      -1.03439742        1 
H      -1.02132684      -1.88765963      -2.19197914        1 
H       1.01838392      -3.32927425      -0.49855267        1 
H       1.36648864      -2.25575871      -1.86105686        1 
H       4.09631811       2.67291733      -1.73795745        1 
H       2.88564593       3.55865172      -0.75815512        1 
H      -3.43886649       2.81217039       1.14527118        1 
H      -3.28479804       3.84222345      -0.31162598        1 
C      -2.53745115      -1.43142520       0.51896177        6 
C       2.22589841      -1.31534034       0.92791817        6 
O       3.35761611      -1.20147360       0.08322547        8 
H       2.22952338      -2.27508428       1.46417120        1 
H       2.20556875      -0.50779373       1.67130336        1 
C       4.57563133      -1.12327241       0.79802496        6 
H       5.37192266      -1.00771099       0.06234857        1 
H       4.75745955      -2.03496424       1.38424304        1 
H       4.58415292      -0.26093695       1.47899039        1 
O      -3.50294416      -1.16181418      -0.48366986        8 
H      -2.67330021      -0.77433270       1.38620488        1 
H      -2.61180638      -2.47290129       0.86403840        1 
C      -4.83223486      -1.30236128      -0.02025164        6 
H      -5.49122496      -1.06291293      -0.85494913        1 
H      -5.04018404      -0.61550115       0.81168315        1 
H      -5.03339992      -2.32997035       0.31363693        1 
