43
Lattice="0.0 0.0 0.0 0.0 0.0 0.0 0.0 0.0 0.0" Properties=species:S:1:pos:R:3:Z:I:1 pbc="F F F"
C      -0.69455509       0.05500602       0.80376430        6 
C       0.83332133      -0.20562183       0.74190656        6 
C      -1.67033164      -1.10924727       0.79713098        6 
C       1.32920578      -1.33646727      -0.14383497        6 
O      -1.05736781      -2.30831833       0.86128152        8 
O      -2.86394980      -0.98317649       0.93451277        8 
O       0.52836315      -1.57748393      -1.19644404        8 
O       2.40837475      -1.86441271      -0.00204505        8 
C       0.97981687      -2.57753995      -2.12189849        6 
C      -1.91135934      -3.45246663       1.03903020        6 
C      -0.88992750       1.27944207      -0.17388420        6 
C      -0.61863538       2.53927796       0.67293338        6 
C       0.88716921       2.33481798       1.00151778        6 
C       1.26500746       1.15039728       0.06273432        6 
O       0.29512888       1.24467205      -0.99063548        8 
H      -0.89401421       0.44401694       1.80827087        1 
H       1.29191324      -0.33516490       1.71923927        1 
H       1.07664089      -3.54325656      -1.62229316        1 
H      -2.60131342      -3.54629754       0.19909880        1 
H      -0.77742641       3.42855589       0.06061023        1 
H      -1.26510057       2.60547637       1.54687408        1 
H       1.48328945       3.21409013       0.75633821        1 
H       1.07432131       2.09453493       2.04875880        1 
H       0.21695424      -2.62198943      -2.89637970        1 
H       1.94378677      -2.29892460      -2.55051919        1 
H      -2.48269069      -3.36320766       1.96421927        1 
H      -1.24079310      -4.30794178       1.08184281        1 
C      -2.12304185       1.31092737      -1.05267167        6 
C       2.66669659       1.21959294      -0.50543623        6 
O       3.56257966       1.18438374       0.58911890        8 
H       2.77598710       2.15399480      -1.07547011        1 
H       2.85440649       0.38355163      -1.18917932        1 
C       4.89859767       0.90921810       0.20855708        6 
H       5.49529703       0.90485817       1.12082820        1 
H       5.29002248       1.67949818      -0.47118201        1 
H       4.97309702      -0.07248215      -0.27588806        1 
O      -3.19507112       1.82608378      -0.28564373        8 
H      -2.35218724       0.30564967      -1.42614940        1 
H      -1.91797377       1.95641819      -1.91892947        1 
C      -4.46971660       1.45285880      -0.77430709        6 
H      -5.20851253       1.91506759      -0.11917838        1 
H      -4.59401093       0.36384430      -0.74290772        1 
H      -4.62929893       1.81151379      -1.80132930        1 
