43
Lattice="0.0 0.0 0.0 0.0 0.0 0.0 0.0 0.0 0.0" Properties=species:S:1:pos:R:3:Z:I:1 pbc="F F F"
C      -0.76409982      -0.09080311       0.78685618        6 
C       0.80143429       0.00484629       0.87824148        6 
C      -1.28553452      -1.31225900       0.04869969        6 
C       1.48938708      -1.34896687       0.74792399        6 
O      -2.61351290      -1.45106492       0.25218283        8 
O      -0.63930797      -2.09489606      -0.60197448        8 
O       2.21064620      -1.52710969      -0.36619488        8 
O       1.38968834      -2.18013352       1.62003282        8 
C       2.74758732      -2.84746380      -0.55625899        6 
C      -3.23225556      -2.58583722      -0.37988875        6 
C      -1.06740666       1.22468875      -0.01911215        6 
C      -0.72470509       2.43791932       0.88671302        6 
C       0.81988786       2.49282737       0.76384201        6 
C       1.10433835       1.21794068      -0.06567569        6 
O      -0.00565060       1.21533895      -0.98365575        8 
H      -1.24271159      -0.06879950       1.76382583        1 
H       1.05246725       0.29079809       1.90035704        1 
H       1.93134003      -3.56677383      -0.63553696        1 
H      -2.78929385      -3.51368201      -0.01498369        1 
H      -1.19744203       3.34096152       0.49812653        1 
H      -1.07953038       2.29390729       1.90743505        1 
H       1.14234713       3.36917021       0.19834235        1 
H       1.34382329       2.49691409       1.71922028        1 
H       3.30779209      -2.80069772      -1.48810215        1 
H       3.39984573      -3.12186564       0.27370329        1 
H      -3.11233046      -2.53411160      -1.46363862        1 
H      -4.28385482      -2.53024767      -0.10716794        1 
C      -2.39293635       1.34260935      -0.74368769        6 
C       2.40326404       1.24782945      -0.84151793        6 
O       3.45830062       1.19289682       0.10546421        8 
H       2.45099534       2.18190033      -1.42032009        1 
H       2.44965103       0.40252026      -1.53146752        1 
C       4.72256787       0.97851098      -0.48944018        6 
H       5.45673279       0.94684575       0.31611223        1 
H       4.98563074       1.79095871      -1.18166858        1 
H       4.74518061       0.02626902      -1.03621426        1 
O      -3.41103375       1.49287145       0.22597154        8 
H      -2.57697104       0.46397112      -1.37413324        1 
H      -2.34689101       2.22255200      -1.40207873        1 
C      -4.71085634       1.38477319      -0.31775937        6 
H      -5.41543625       1.51386867       0.50394575        1 
H      -4.86738527       0.39791256      -0.77476038        1 
H      -4.89720147       2.15917259      -1.07546205        1 
