43
Lattice="0.0 0.0 0.0 0.0 0.0 0.0 0.0 0.0 0.0" Properties=species:S:1:pos:R:3:Z:I:1 pbc="F F F"
C      -0.67946177      -0.00499234       0.82770538        6 
C       0.88857118      -0.12627020       0.86286998        6 
C      -1.46047756      -1.23162834       0.39974749        6 
C       1.44065647      -1.45446299       0.36143695        6 
O      -2.62138624      -1.29572563       1.08631892        8 
O      -1.14467142      -2.05196864      -0.42742368        8 
O       1.56726012      -1.52130594      -0.97094063        8 
O       1.77547994      -2.34024880       1.11258822        8 
C       1.92014411      -2.80691559      -1.50705535        6 
C      -3.49535144      -2.38630381       0.74850683        6 
C      -0.87436519       1.23647268      -0.13175581        6 
C      -0.60412021       2.49837290       0.71578066        6 
C       0.93161764       2.38749714       0.92097297        6 
C       1.28351236       1.14726495       0.05013096        6 
O       0.27940304       1.18428089      -0.97603374        8 
H      -1.05482057       0.25386880       1.81553262        1 
H       1.24016614      -0.05561684       1.88945317        1 
H       1.12658617      -3.52229784      -1.28712298        1 
H      -3.00644044      -3.34218449       0.94258585        1 
H      -0.86760420       3.38653161       0.13815311        1 
H      -1.18043268       2.51395441       1.63984199        1 
H       1.45203614       3.26862667       0.54256119        1 
H       1.22404102       2.25101107       1.96264620        1 
H       2.00974457      -2.65753123      -2.58110826        1 
H       2.86193983      -3.16061405      -1.08465999        1 
H      -3.78004836      -2.33800767      -0.30410343        1 
H      -4.36817430      -2.26480094       1.38617869        1 
C      -2.11521315       1.27397107      -0.99990243        6 
C       2.66414146       1.17808856      -0.57583207        6 
O       3.59657176       0.90721243       0.45755247        8 
H       2.84371001       2.17135295      -1.01256258        1 
H       2.72962888       0.43037125      -1.37141337        1 
C       4.93025177       0.82217220      -0.00678157        6 
H       5.55834491       0.60468030       0.85712483        1 
H       5.25759699       1.76774495      -0.46135559        1 
H       5.04371041       0.01723688      -0.74572358        1 
O      -3.23089968       1.52666696      -0.16685489        8 
H      -2.23172870       0.32468025      -1.54149080        1 
H      -1.99490952       2.07213408      -1.74642928        1 
C      -4.46420756       1.43096082      -0.85094340        6 
H      -5.25063635       1.64368917      -0.12667142        1 
H      -4.61617041       0.42273049      -1.26139875        1 
H      -4.52673830       2.15788493      -1.67302503        1 
