43
Lattice="0.0 0.0 0.0 0.0 0.0 0.0 0.0 0.0 0.0" Properties=species:S:1:pos:R:3:Z:I:1 pbc="F F F"
C      -0.80303493       0.03180464       0.84886826        6 
C       0.77059636       0.02584557       0.86498182        6 
C      -1.59932156      -1.24146616       0.60282072        6 
C       1.48858698      -1.24001307       0.41860769        6 
O      -0.86449042      -2.30458347       0.24240386        8 
O      -2.79595316      -1.29964467       0.76308649        8 
O       1.46731206      -1.42696413      -0.91546582        8 
O       2.08132377      -1.96635524       1.17904602        8 
C       2.10863961      -2.61877873      -1.38987787        6 
C      -1.57411787      -3.54404913       0.06206090        6 
C      -1.10986527       1.21429941      -0.15879106        6 
C      -0.90222402       2.53536861       0.61587027        6 
C       0.63883125       2.53978606       0.78776921        6 
C       1.05446680       1.28347026      -0.02636201        6 
O       0.02975948       1.19099809      -1.02770155        8 
H      -1.16061297       0.33629829       1.83399848        1 
H       1.12856856       0.18680827       1.87926462        1 
H       1.63711386      -3.50190714      -0.95519213        1 
H      -2.26311376      -3.46620186      -0.78037879        1 
H      -1.23834851       3.37111564       0.00003613        1 
H      -1.46163852       2.56291544       1.54963196        1 
H       1.09051897       3.43272928       0.35283017        1 
H       0.96389660       2.47638712       1.82649834        1 
H       1.97865706      -2.60923886      -2.47030736        1 
H       3.16845781      -2.61860358      -1.12893688        1 
H      -2.13247944      -3.79830614       0.96340167        1 
H      -0.80679080      -4.28848307      -0.13758064        1 
C      -2.38112472       1.15127399      -0.98085022        6 
C       2.41503822       1.38422051      -0.68825956        6 
O       3.38643492       1.27839674       0.33880106        8 
H       2.49428799       2.35196656      -1.20451406        1 
H       2.53630131       0.58773088      -1.42838151        1 
C       4.71313053       1.24676915      -0.15017184        6 
H       5.37085075       1.14008905       0.71236905        1 
H       4.96661581       2.17289399      -0.68488085        1 
H       4.86657942       0.39472840      -0.82682425        1 
O      -3.45652932       1.53629111      -0.14754521        8 
H      -2.53586587       0.14425358      -1.38600186        1 
H      -2.27827303       1.84329584      -1.82958643        1 
C      -4.72117163       1.14132333      -0.64521909        6 
H      -5.46891801       1.51179642       0.05632474        1 
H      -4.79360036       0.04846877      -0.70352535        1 
H      -4.91593118       1.57404540      -1.63699692        1 
