43
Lattice="0.0 0.0 0.0 0.0 0.0 0.0 0.0 0.0 0.0" Properties=species:S:1:pos:R:3:Z:I:1 pbc="F F F"
C      -0.80581635       0.04426737       0.83524117        6 
C       0.77079547       0.16636451       0.90787944        6 
C      -1.26840173      -1.33525340       0.36962852        6 
C       1.52465796      -1.14944000       0.89081715        6 
O      -1.97808547      -1.34204364      -0.77147409        8 
O      -0.99231324      -2.34592141       0.96880349        8 
O       1.74250800      -1.61267239      -0.36070440        8 
O       1.79823850      -1.77156075       1.88369780        8 
C       2.31104183      -2.93154209      -0.44320475        6 
C      -2.39855795      -2.63502884      -1.24292521        6 
C      -1.11875909       1.29284952      -0.04048717        6 
C      -0.70745780       2.55363319       0.78426828        6 
C       0.82172221       2.61942217       0.53767842        6 
C       1.04945814       1.27007565      -0.17416209        6 
O      -0.09337643       1.20589225      -1.04602050        8 
H      -1.22235296       0.14936823       1.83696417        1 
H       1.02181258       0.57220809       1.88657572        1 
H       1.64168752      -3.65538646       0.02393432        1 
H      -3.04489619      -3.11873857      -0.50935852        1 
H      -1.21995919       3.43764225       0.40313849        1 
H      -0.97248507       2.44981305       1.83721548        1 
H       1.08106541       3.43510871      -0.14042291        1 
H       1.41612664       2.72375024       1.44537158        1 
H       2.42081659      -3.13479821      -1.50681907        1 
H       3.28090003      -2.96229637       0.05580485        1 
H      -1.53221298      -3.27024451      -1.43279205        1 
H      -2.94080716      -2.44205624      -2.16631171        1 
C      -2.48310226       1.41642003      -0.69433072        6 
C       2.32062379       1.15282943      -0.98807523        6 
O       3.39481710       1.01659490      -0.07159272        8 
H       2.44697606       2.05471843      -1.60424672        1 
H       2.25735774       0.28207731      -1.64669193        1 
C       4.62153178       0.69875850      -0.69975683        6 
H       5.37021240       0.60309396       0.08678605        1 
H       4.93275429       1.48800029      -1.39833868        1 
H       4.54978803      -0.25050166      -1.24826430        1 
O      -3.45456151       1.23465268       0.32353180        8 
H      -2.59771269       0.67153285      -1.48323530        1 
H      -2.57405578       2.41760115      -1.14053003        1 
C      -4.77902217       1.24409608      -0.17148350        6 
H      -5.44290777       1.08794578       0.67906541        1 
H      -4.93469014       0.43956071      -0.90349345        1 
H      -5.02408355       2.20467599      -0.64614566        1 
