43
Lattice="0.0 0.0 0.0 0.0 0.0 0.0 0.0 0.0 0.0" Properties=species:S:1:pos:R:3:Z:I:1 pbc="F F F"
C      -0.77655076       0.09100062       0.87277335        6 
C       0.79119575      -0.06771839       0.78398683        6 
C      -1.59456378      -1.18943339       0.81948572        6 
C       1.24907241      -1.40645786       0.20074712        6 
O      -1.92606845      -1.56548748      -0.43105593        8 
O      -1.89208745      -1.81423810       1.80615986        8 
O       2.43608277      -1.34267963      -0.42935526        8 
O       0.66830485      -2.45033921       0.36844181        8 
C       2.96136326      -2.59593344      -0.90715562        6 
C      -2.58553420      -2.83791789      -0.54139863        6 
C      -1.03968434       1.25400062      -0.15178775        6 
C      -0.79660785       2.55976737       0.63048081        6 
C       0.72676040       2.45219705       0.89158935        6 
C       1.12839915       1.23841295      -0.00682038        6 
O       0.10841101       1.21817001      -1.02023658        8 
H      -1.00320925       0.46463452       1.87043865        1 
H       1.23120008      -0.04183104       1.78323122        1 
H       2.26274499      -3.06295874      -1.60237374        1 
H      -3.52217750      -2.83351408       0.01830869        1 
H      -1.03435920       3.41458007      -0.00625042        1 
H      -1.40189444       2.62596200       1.53411821        1 
H       1.26089696       3.34806117       0.57400335        1 
H       0.97552895       2.27876948       1.93917760        1 
H       3.89307269      -2.34409068      -1.40925206        1 
H       3.14548391      -3.27402931      -0.07273533        1 
H      -1.93591934      -3.62575174      -0.15800115        1 
H      -2.77368964      -2.97682685      -1.60449629        1 
C      -2.30551505       1.21592035      -0.98115191        6 
C       2.48489093       1.41899519      -0.65929198        6 
O       3.45810207       1.37661724       0.37024890        8 
H       2.49549238       2.39791808      -1.16106004        1 
H       2.66701277       0.64431996      -1.40588321        1 
C       4.78223442       1.34866763      -0.12163865        6 
H       5.44630885       1.30576661       0.74211320        1 
H       5.01481138       2.24939984      -0.70751489        1 
H       4.95194319       0.46413795      -0.75089531        1 
O      -3.39616434       1.12041056      -0.07939043        8 
H      -2.28129016       0.35787737      -1.65789496        1 
H      -2.37441841       2.13713419      -1.57791871        1 
C      -4.62572721       0.85180652      -0.72433100        6 
H      -5.38859894       0.78699902       0.05173786        1 
H      -4.58471615      -0.09991584      -1.27133021        1 
H      -4.89546124       1.65270025      -1.42709500        1 
