43
Lattice="0.0 0.0 0.0 0.0 0.0 0.0 0.0 0.0 0.0" Properties=species:S:1:pos:R:3:Z:I:1 pbc="F F F"
C      -0.89034539       0.09351874      -0.71481318        6 
C       0.67172445       0.12333070      -0.67790645        6 
C      -1.56801065       1.39713897      -0.32087541        6 
C       1.24405056       1.18539170       0.24114831        6 
O      -0.97153086       2.41857483      -0.98228728        8 
O      -2.56142572       1.53864885       0.34384920        8 
O       2.48886613       1.53145256      -0.14967673        8 
O       0.69806765       1.65918481       1.20727852        8 
C       3.16191192       2.49727160       0.67623554        6 
C      -1.47090624       3.73423738      -0.68909262        6 
C      -1.21706235      -1.22769534       0.05853344        6 
C      -1.00327051      -2.38767892      -0.94273693        6 
C       0.54007525      -2.37247342      -1.10480541        6 
C       0.95068445      -1.29762931      -0.06461614        6 
O      -0.07865900      -1.38653903       0.92828654        8 
H      -1.20128640      -0.03168304      -1.75602464        1 
H       1.12296832       0.22958993      -1.66143616        1 
H       3.31770974       2.09941554       1.68087734        1 
H      -1.29176509       3.97182335       0.36092947        1 
H      -1.34513272      -3.31922662      -0.48830302        1 
H      -1.55342728      -2.24595623      -1.87267041        1 
H       0.98438254      -3.33341598      -0.84104939        1 
H       0.87939575      -2.11817344      -2.10907253        1 
H       4.11538873       2.68266575       0.18653156        1 
H       2.57793310       3.41611970       0.74422443        1 
H      -2.53907447       3.79735634      -0.90041187        1 
H      -0.91108661       4.40799998      -1.33448558        1 
C      -2.49393079      -1.31229535       0.86541062        6 
C       2.29961463      -1.52661866       0.58489912        6 
O       3.27410649      -1.55428824      -0.44020494        8 
H       2.26991985      -2.48354140       1.12593811        1 
H       2.51982121      -0.73748199       1.31608980        1 
C       4.59726618      -1.59588332       0.05537105        6 
H       5.26323413      -1.61218982      -0.80749280        1 
H       4.77244956      -2.49586157       0.66174059        1 
H       4.82079746      -0.70960491       0.66548309        1 
O      -3.57089493      -1.30849463      -0.05816937        8 
H      -2.56545166      -0.47046581       1.55772739        1 
H      -2.48183494      -2.24894229       1.44214882        1 
C      -4.81557410      -1.00729409       0.54607493        6 
H      -5.57016564      -1.04456945      -0.24048437        1 
H      -4.80070872      -0.00434406       0.98862830        1 
H      -5.07344244      -1.74250420       1.32193468        1 
