43
Lattice="0.0 0.0 0.0 0.0 0.0 0.0 0.0 0.0 0.0" Properties=species:S:1:pos:R:3:Z:I:1 pbc="F F F"
C      -0.72352180      -0.15321249       0.70660975        6 
C       0.84544588       0.03947250       0.70152491        6 
C      -1.16597728      -1.49272224       0.12235263        6 
C       1.64087413      -1.12083906       0.13281030        6 
O      -2.30649490      -1.44636018      -0.58215110        8 
O      -0.57418737      -2.52490300       0.33226945        8 
O       2.17957936      -1.85250329       1.12489759        8 
O       1.82792077      -1.34174854      -1.04015171        8 
C       2.85325299      -3.05388533       0.71523945        6 
C      -2.78384757      -2.70720090      -1.09213558        6 
C      -1.17377306       1.19918856       0.06330262        6 
C      -0.85925568       2.32304045       1.09762993        6 
C       0.66582688       2.52023366       0.90230381        6 
C       0.98471330       1.38369748      -0.09230604        6 
O      -0.17187464       1.39472584      -0.94611866        8 
H      -1.07696913      -0.20328901       1.73964110        1 
H       1.19498456       0.17468156       1.72266974        1 
H       3.67836769      -2.82161272       0.04025897        1 
H      -3.00755403      -3.38889843      -0.27058829        1 
H      -1.41696980       3.22588244       0.84613185        1 
H      -1.14013670       2.03600207       2.11112529        1 
H       0.88374027       3.48205416       0.43359725        1 
H       1.24946958       2.44930480       1.81999226        1 
H       3.22344591      -3.50716113       1.63241033        1 
H       2.14762250      -3.71927123       0.21529544        1 
H      -2.03673815      -3.15939499      -1.74504507        1 
H      -3.68750413      -2.46725169      -1.64838618        1 
C      -2.54760594       1.33455555      -0.56256023        6 
C       2.23671638       1.56436777      -0.92504922        6 
O       3.34531852       1.36656805      -0.05940678        8 
H       2.25102758       2.57771717      -1.35081547        1 
H       2.24475968       0.83527205      -1.73932749        1 
C       4.57259048       1.23904052      -0.75302512        6 
H       5.34824317       1.07584312      -0.00419105        1 
H       4.81002186       2.14936090      -1.32121035        1 
H       4.54755069       0.38526465      -1.44287313        1 
O      -3.50671162       1.11635712       0.45839866        8 
H      -2.67454464       0.62413131      -1.38159559        1 
H      -2.64001790       2.35340191      -0.96691162        1 
C      -4.82964024       1.05995552      -0.03443981        6 
H      -5.48743985       0.90099461       0.82051765        1 
H      -4.95309790       0.22982294      -0.74339995        1 
H      -5.11374815       1.99664400      -0.53491352        1 
