43
Lattice="0.0 0.0 0.0 0.0 0.0 0.0 0.0 0.0 0.0" Properties=species:S:1:pos:R:3:Z:I:1 pbc="F F F"
C      -0.85178481       0.06407395      -0.60103279        6 
C       0.72616855      -0.03236629      -0.67843013        6 
C      -1.33916302       1.19676027       0.29180504        6 
C       1.44626911       1.18769995      -0.14050002        6 
O      -1.26141591       2.36811757      -0.38192086        8 
O      -1.73418585       1.12005593       1.42650291        8 
O       1.65146834       2.07078675      -1.13997055        8 
O       1.82411048       1.36982195       0.99137240        8 
C       2.26513467       3.31478919      -0.76608995        6 
C      -1.62253847       3.54402353       0.36418712        6 
C      -1.18156545      -1.36014572      -0.07017844        6 
C      -0.82406709      -2.37714211      -1.19284330        6 
C       0.71591886      -2.49303845      -1.03933281        6 
C       0.98605164      -1.40712445       0.02639200        6 
O      -0.14187985      -1.56497184       0.90006768        8 
H      -1.27058467       0.23653840      -1.59073775        1 
H       1.01547453      -0.09830985      -1.72575110        1 
H       3.25041133       3.14222462      -0.33033842        1 
H      -0.96793378       3.65789314       1.23010567        1 
H      -1.32226647      -3.32934458      -1.00568593        1 
H      -1.14056767      -2.02633949      -2.17608924        1 
H       1.00153912      -3.46706927      -0.63725061        1 
H       1.27240631      -2.32950931      -1.96208410        1 
H       2.34778179       3.88635937      -1.68785427        1 
H       1.64101637       3.84322102      -0.04320644        1 
H      -2.65727490       3.47932416       0.70376783        1 
H      -1.49771144       4.37487523      -0.32698265        1 
C      -2.54106945      -1.57334617       0.56606070        6 
C       2.27114906      -1.55304483       0.81154150        6 
O       3.33950654      -1.27593586      -0.08307869        8 
H       2.34561715      -2.57860415       1.20022818        1 
H       2.27514302      -0.85199370       1.65028304        1 
C       4.59158080      -1.18281173       0.57052951        6 
H       5.33813208      -0.96482267      -0.19382492        1 
H       4.85489470      -2.12655449       1.06839930        1 
H       4.58846295      -0.37700294       1.31636844        1 
O      -3.51300298      -1.13267722      -0.37262961        8 
H      -2.61504909      -1.01002519       1.49913652        1 
H      -2.67275425      -2.64304269       0.78400536        1 
C      -4.83332251      -1.20744171       0.13106695        6 
H      -5.49856648      -0.84054780      -0.65116611        1 
H      -4.95159617      -0.58557256       1.02854078        1 
H      -5.10908819      -2.24205698       0.37949978        1 
