43
Lattice="0.0 0.0 0.0 0.0 0.0 0.0 0.0 0.0 0.0" Properties=species:S:1:pos:R:3:Z:I:1 pbc="F F F"
C      -0.68449626      -0.15912946       0.74723547        6 
C       0.86226519      -0.24996693       0.65158782        6 
C      -1.46678502      -1.43954433       0.51979674        6 
C       1.40734170      -1.27179820      -0.33805461        6 
O      -2.75590192      -1.25149943       0.88238092        8 
O      -1.04938560      -2.49134348       0.10695401        8 
O       2.42471572      -1.96407019       0.22788939        8 
O       1.03628369      -1.44825989      -1.46824960        8 
C       3.01783944      -2.97824171      -0.60128615        6 
C      -3.63342916      -2.37651453       0.70650381        6 
C      -1.00924971       1.13030196      -0.11476185        6 
C      -0.84031900       2.32908216       0.84112523        6 
C       0.68798579       2.25046090       1.12027564        6 
C       1.14992279       1.18408117       0.08435023        6 
O       0.15476092       1.27448399      -0.94263279        8 
H      -0.93234650       0.09190474       1.78127859        1 
H       1.33220453      -0.41028854       1.61871981        1 
H       3.46538683      -2.53351697      -1.49232402        1 
H      -3.29890073      -3.22320929       1.30807308        1 
H      -1.10443631       3.24946284       0.31732804        1 
H      -1.46276395       2.25376745       1.73232371        1 
H       1.18724051       3.20162511       0.93145522        1 
H       0.92607204       1.95012374       2.14136458        1 
H       3.78115666      -3.44833242       0.01534193        1 
H       2.26381629      -3.70560992      -0.90587929        1 
H      -3.66649626      -2.67586717      -0.34267975        1 
H      -4.61119624      -2.03355020       1.03807461        1 
C      -2.24165879       1.13031717      -0.99616579        6 
C       2.52518166       1.41719630      -0.50524287        6 
O       3.45957224       1.33297555       0.55606529        8 
H       2.55115649       2.41111243      -0.97528937        1 
H       2.74303998       0.67346785      -1.28238047        1 
C       4.80290894       1.37181041       0.11537474        6 
H       5.43379853       1.29691693       1.00120283        1 
H       5.02800703       2.31181779      -0.40788343        1 
H       5.02462512       0.53120744      -0.55665910        1 
O      -3.36578812       1.46672555      -0.20509913        8 
H      -2.37306581       0.14943781      -1.47263996        1 
H      -2.09280749       1.87177801      -1.79393196        1 
C      -4.59197595       1.25225551      -0.87181565        6 
H      -5.38667439       1.55381717      -0.18887971        1 
H      -4.72365040       0.19230722      -1.13150379        1 
H      -4.66396999       1.85051629      -1.79148180        1 
