43
Lattice="0.0 0.0 0.0 0.0 0.0 0.0 0.0 0.0 0.0" Properties=species:S:1:pos:R:3:Z:I:1 pbc="F F F"
C      -0.77263299      -0.09456298       0.79263541        6 
C       0.78674034       0.05641032       0.77410437        6 
C      -1.33683109      -1.30581805       0.07455451        6 
C       1.56397577      -1.21035910       0.46024791        6 
O      -0.67705515      -1.57561315      -1.07149607        8 
O      -2.30870876      -1.92094033       0.43955769        8 
O       1.00185137      -2.25323181       1.11714923        8 
O       2.60082468      -1.30455528      -0.14557662        8 
C       1.65498233      -3.52540053       0.97318297        6 
C      -1.15444826      -2.69810559      -1.83066218        6 
C      -1.18174324       1.22364276       0.04593528        6 
C      -0.86490711       2.42431102       0.97416574        6 
C       0.67358719       2.54958032       0.80464538        6 
C       0.98153024       1.33595211      -0.10684216        6 
O      -0.17197590       1.32046812      -0.96749796        8 
H      -1.18307516      -0.12335266       1.79839642        1 
H       1.11978760       0.28420377       1.79142463        1 
H       2.67878046      -3.47521803       1.34678798        1 
H      -2.17985238      -2.52783102      -2.16324744        1 
H      -1.38505166       3.31537954       0.61940499        1 
H      -1.18431795       2.24174615       2.00033428        1 
H       0.94311047       3.46882402       0.28170860        1 
H       1.23061992       2.52160217       1.74064588        1 
H       1.06324308      -4.22215371       1.56278042        1 
H       1.67112928      -3.82761152      -0.07556209        1 
H      -1.12301459      -3.60741348      -1.22765339        1 
H      -0.48426710      -2.77724659      -2.68371627        1 
C      -2.55658099       1.24702466      -0.58937727        6 
C       2.23914863       1.47003105      -0.93780895        6 
O       3.32111873       1.63239832      -0.03609417        8 
H       2.13783708       2.35317982      -1.58553633        1 
H       2.38042358       0.58707386      -1.56596577        1 
C       4.58090742       1.38326919      -0.63202696        6 
H       5.33541431       1.53537805       0.14051425        1 
H       4.77685826       2.07679472      -1.46238069        1 
H       4.63933873       0.35163870      -0.99881921        1 
O      -3.50640430       1.24610087       0.45813752        8 
H      -2.69718559       0.37812859      -1.24606563        1 
H      -2.65009612       2.15163944      -1.20795346        1 
C      -4.82996502       1.01758787       0.01144236        6 
H      -5.47215734       1.03915119       0.89178630        1 
H      -4.91863680       0.03668831      -0.47362719        1 
H      -5.15721911       1.79691645      -0.69151146        1 
