43
Lattice="0.0 0.0 0.0 0.0 0.0 0.0 0.0 0.0 0.0" Properties=species:S:1:pos:R:3:Z:I:1 pbc="F F F"
C      -0.91395293       0.12962852      -0.62665902        6 
C       0.65099911      -0.02715899      -0.72127462        6 
C      -1.34589979       1.30333603       0.23904323        6 
C       1.45814843       1.12169958      -0.15730281        6 
O      -1.19959177       2.44772674      -0.47190739        8 
O      -1.72768792       1.27998428       1.37887470        8 
O       2.21289034       1.69012347      -1.11929194        8 
O       1.44304917       1.50541785       0.98796010        8 
C       3.05350837       2.77596464      -0.69649523        6 
C      -1.41985744       3.66727928       0.25973584        6 
C      -1.30284373      -1.26865532      -0.07212232        6 
C      -0.98251658      -2.32443959      -1.17180779        6 
C       0.55184648      -2.50513373      -1.00496500        6 
C       0.85738387      -1.40113962       0.02880451        6 
O      -0.27272251      -1.49272221       0.90292079        8 
H      -1.33168681       0.29736507      -1.61832541        1 
H       0.94554549      -0.13450864      -1.76221963        1 
H       3.76138225       2.43559699       0.06138615        1 
H      -0.70709818       3.73930488       1.08288838        1 
H      -1.52258326      -3.25080799      -0.97195572        1 
H      -1.27466279      -1.97937751      -2.16447082        1 
H       0.79019615      -3.47887488      -0.57207108        1 
H       1.12014066      -2.39280219      -1.92823104        1 
H       3.57916063       3.10167063      -1.59140459        1 
H       2.45282834       3.58951584      -0.28630938        1 
H      -2.43576230       3.69907232       0.65588370        1 
H      -1.26413773       4.46895363      -0.45916236        1 
C      -2.66768180      -1.41278750       0.57083753        6 
C       2.12388039      -1.54887124       0.84311938        6 
O       3.22052251      -1.28796640      -0.01883196        8 
H       2.17983742      -2.56781649       1.25134051        1 
H       2.10623956      -0.83838435       1.67725399        1 
C       4.46383823      -1.28009003       0.65734926        6 
H       5.22969726      -1.04474788      -0.08209213        1 
H       4.68418078      -2.26003288       1.10299241        1 
H       4.47955540      -0.52076965       1.45118802        1 
O      -3.62696174      -0.99434954      -0.39021489        8 
H      -2.72414632      -0.79942476       1.47317990        1 
H      -2.82735926      -2.46623806       0.84306109        1 
C      -4.95077356      -1.02455628       0.10931385        6 
H      -5.60511893      -0.67429624      -0.68947491        1 
H      -5.06137627      -0.36757991       0.98231644        1 
H      -5.24736536      -2.04385929       0.39462808        1 
