43
Lattice="0.0 0.0 0.0 0.0 0.0 0.0 0.0 0.0 0.0" Properties=species:S:1:pos:R:3:Z:I:1 pbc="F F F"
C      -0.83409261       0.07588457       0.91041885        6 
C       0.74559287       0.04993827       0.86155411        6 
C      -1.52694354      -1.24873257       0.65462230        6 
C       1.30615891      -1.33633420       0.56008987        6 
O      -1.31387447      -1.69780941      -0.60423194        8 
O      -2.18335527      -1.84232757       1.46997380        8 
O       2.24353053      -1.37740161      -0.39917970        8 
O       0.94018602      -2.32061893       1.15716442        8 
C       2.78758587      -2.67866238      -0.69020709        6 
C      -1.82719573      -3.00957508      -0.89268635        6 
C      -1.14518960       1.22389977      -0.11988577        6 
C      -0.90199456       2.55894995       0.61563847        6 
C       0.64342390       2.55016383       0.73597479        6 
C       1.02495071       1.27155665      -0.06892442        6 
O      -0.03658277       1.16984636      -1.03167475        8 
H      -1.17248745       0.36701149       1.90182084        1 
H       1.12843904       0.25837410       1.86297748        1 
H       1.99630518      -3.35432465      -1.01755712        1 
H      -2.90784918      -3.04119187      -0.74583407        1 
H      -1.24848572       3.38643928      -0.00675716        1 
H      -1.42509120       2.61211973       1.56999598        1 
H       1.08873227       3.42885707       0.26752433        1 
H       1.00109025       2.50792007       1.76488035        1 
H       3.50892021      -2.51669246      -1.48839197        1 
H       3.27510998      -3.09508560       0.19211536        1 
H      -1.35340389      -3.74524667      -0.24073584        1 
H      -1.57615294      -3.19737749      -1.93482264        1 
C      -2.44147792       1.13169654      -0.89749459        6 
C       2.35411451       1.38886864      -0.78704828        6 
O       3.36936414       1.38531339       0.20380511        8 
H       2.36627250       2.33450498      -1.34864700        1 
H       2.48709980       0.56382207      -1.48904289        1 
C       4.67108725       1.31896820      -0.34223452        6 
H       5.37194210       1.31528445       0.49303376        1 
H       4.88379745       2.18560373      -0.98422194        1 
H       4.80666997       0.40132797      -0.93120113        1 
O      -3.49927296       1.11662927       0.04432317        8 
H      -2.44675968       0.22386880      -1.51066168        1 
H      -2.52207993       2.00129511      -1.56605108        1 
C      -4.76889632       0.92037720      -0.54784128        6 
H      -5.50019527       0.90109578       0.26002152        1 
H      -4.81132188      -0.03249252      -1.09318670        1 
H      -5.01818425       1.73554702      -1.24171341        1 
