43
Lattice="0.0 0.0 0.0 0.0 0.0 0.0 0.0 0.0 0.0" Properties=species:S:1:pos:R:3:Z:I:1 pbc="F F F"
C      -0.77588950      -0.04515992      -0.77143207        6 
C       0.79615799       0.09402398      -0.79856305        6 
C      -1.49995765       1.14393237      -0.17520973        6 
C       1.24030194       1.48265198      -0.35495233        6 
O      -2.34864120       1.68543646      -1.06486115        8 
O      -1.35863695       1.55314331       0.95368858        8 
O       2.02667969       1.52080381       0.72658275        8 
O       0.87474176       2.47338904      -0.94449568        8 
C       2.38088917       2.83494546       1.19891232        6 
C      -3.08853281       2.83162654      -0.61153371        6 
C      -0.93576764      -1.35127131       0.09174591        6 
C      -0.61719891      -2.54155714      -0.83992400        6 
C       0.92113455      -2.39858037      -0.98698363        6 
C       1.22395782      -1.19798962      -0.04190836        6 
O       0.20480131      -1.32296900       0.96102043        8 
H      -1.16896361      -0.20304533      -1.77185779        1 
H       1.13151434       0.04159096      -1.83534142        1 
H       1.48003524       3.39535336       1.45039041        1 
H      -2.40604234       3.63599921      -0.33407795        1 
H      -0.88401507      -3.47591663      -0.34196060        1 
H      -1.16410968      -2.49227523      -1.78123447        1 
H       1.43990648      -3.28861251      -0.62758656        1 
H       1.25136635      -2.21221849      -2.00922266        1 
H       2.98918364       2.66710762       2.08510668        1 
H       2.94691643       3.37407087       0.43816898        1 
H      -3.70901068       2.56941765       0.24738119        1 
H      -3.70868942       3.12762193      -1.45477350        1 
C      -2.19096948      -1.47598391       0.92952207        6 
C       2.59344200      -1.25188091       0.60456862        6 
O       3.54679941      -0.95790218      -0.40445260        8 
H       2.75797424      -2.26142787       1.00872115        1 
H       2.65364661      -0.53282220       1.42389053        1 
C       4.86200992      -0.83827753       0.10014475        6 
H       5.51450469      -0.62061536      -0.74586425        1 
H       5.19561709      -1.76970414       0.57903346        1 
H       4.93369522      -0.02080085       0.83052868        1 
O      -3.30225506      -1.35559999       0.05671900        8 
H      -2.20439029      -0.69138890       1.69499167        1 
H      -2.19273762      -2.45301276       1.43366250        1 
C      -4.54347099      -1.38471093       0.73484657        6 
H      -5.32307409      -1.26168275      -0.01718537        1 
H      -4.61616195      -0.56954581       1.46785021        1 
H      -4.69402089      -2.34080857       1.25559155        1 
