43
Lattice="0.0 0.0 0.0 0.0 0.0 0.0 0.0 0.0 0.0" Properties=species:S:1:pos:R:3:Z:I:1 pbc="F F F"
C      -0.80397215      -0.08905688      -0.73960575        6 
C       0.76707621       0.11715640      -0.75798800        6 
C      -1.57893363       1.12137734      -0.25850387        6 
C       1.16211900       1.46729810      -0.16661210        6 
O      -2.01654177       1.83605839      -1.30863596        8 
O      -1.82028279       1.40291304       0.89207811        8 
O       1.83780731       1.40877351       0.98834936        8 
O       0.83419365       2.51010795      -0.68385337        8 
C       2.12928840       2.67432945       1.61146328        6 
C      -2.66791136       3.07949737      -0.99899284        6 
C      -0.92918806      -1.39339959       0.11810157        6 
C      -0.61815958      -2.56815127      -0.83595502        6 
C       0.90360576      -2.36905621      -1.06053580        6 
C       1.22539583      -1.20419469      -0.07561629        6 
O       0.23877691      -1.37111578       0.95587631        8 
H      -1.14932584      -0.27847009      -1.75365948        1 
H       1.11387443       0.16265904      -1.79007143        1 
H       1.20122217       3.19910912       1.84107116        1 
H      -1.96831105       3.74660863      -0.49337766        1 
H      -0.82548902      -3.51148963      -0.32665159        1 
H      -1.21357882      -2.53615873      -1.74811448        1 
H       1.47014467      -3.25848866      -0.78208243        1 
H       1.16589989      -2.12034236      -2.08932285        1 
H       2.66682291       2.42810000       2.52456246        1 
H       2.74403759       3.29076782       0.95430867        1 
H      -3.53889447       2.90950713      -0.36420840        1 
H      -2.96642829       3.49643180      -1.95829465        1 
C      -2.17066371      -1.54528800       0.97088213        6 
C       2.61914560      -1.26780090       0.52004519        6 
O       3.52531064      -0.84576155      -0.48803343        8 
H       2.83418888      -2.30242590       0.82364314        1 
H       2.68410710      -0.62269193       1.39807012        1 
C       4.86271217      -0.78016568      -0.03323774        6 
H       5.47149888      -0.43560514      -0.86954316        1 
H       5.22553862      -1.76523832       0.29254002        1 
H       4.96438961      -0.07337750       0.80187557        1 
O      -3.28867774      -1.42129756       0.10433097        8 
H      -2.18806514      -0.77075086       1.74319700        1 
H      -2.16090191      -2.53235142       1.45516363        1 
C      -4.52093330      -1.37093098       0.79862437        6 
H      -5.30679303      -1.26396522       0.05042123        1 
H      -4.55340035      -0.51399692       1.48433218        1 
H      -4.69577284      -2.29195745       1.37245439        1 
