43
Lattice="0.0 0.0 0.0 0.0 0.0 0.0 0.0 0.0 0.0" Properties=species:S:1:pos:R:3:Z:I:1 pbc="F F F"
C      -0.72792506       0.18160096      -0.64339214        6 
C       0.81686373       0.09350742      -0.74007870        6 
C      -1.25167468       1.15641601       0.39977321        6 
C       1.66104078       1.35472607      -0.64816440        6 
O      -2.50297283       1.55847903       0.06873208        8 
O      -0.68171612       1.52467556       1.39361355        8 
O       0.92130893       2.47746568      -0.60864962        8 
O       2.85752169       1.36865675      -0.81837043        8 
C       1.64234243       3.71922776      -0.68182794        6 
C      -3.14379401       2.44481348       1.00090067        6 
C      -1.00202593      -1.26904973      -0.09231586        6 
C      -0.50187422      -2.32366298      -1.12182602        6 
C       1.01885163      -2.38797390      -0.80413111        6 
C       1.15546381      -1.17486116       0.13729990        6 
O      -0.02204027      -1.33618775       0.95250712        8 
H      -1.21804127       0.36471337      -1.59643140        1 
H       1.03746953      -0.19220921      -1.77359722        1 
H       2.20828126       3.77865359      -1.61291402        1 
H      -2.55060446       3.34979040       1.14106541        1 
H      -0.99834303      -3.27980157      -0.95267286        1 
H      -0.71819631      -2.01957098      -2.14678946        1 
H       1.27686575      -3.29903660      -0.26156606        1 
H       1.66236643      -2.31896155      -1.68052393        1 
H       0.88180293       4.49581106      -0.64124300        1 
H       2.32693896       3.81034555       0.16238640        1 
H      -3.27684154       1.95472970       1.96764123        1 
H      -4.10872132       2.68324086       0.55826243        1 
C      -2.37863711      -1.54869955       0.47436737        6 
C       2.38754028      -1.13526752       1.01608929        6 
O       3.50740268      -1.47088535       0.21782531        8 
H       2.25917577      -1.86219797       1.83089246        1 
H       2.50313183      -0.14180050       1.46460707        1 
C       4.73488780      -1.00605578       0.74691951        6 
H       5.52047911      -1.34391450       0.07051824        1 
H       4.92403724      -1.41807852       1.74852186        1 
H       4.74850891       0.08947613       0.79418825        1 
O      -3.29641119      -1.52071716      -0.60226511        8 
H      -2.64806739      -0.80805135       1.23859270        1 
H      -2.36786454      -2.53689357       0.95694737        1 
C      -4.64381257      -1.61270785      -0.18384639        6 
H      -5.26165327      -1.57953452      -1.08134282        1 
H      -4.91454578      -0.77258438       0.47054597        1 
H      -4.83673323      -2.55389439       0.35028561        1 
