43
Lattice="0.0 0.0 0.0 0.0 0.0 0.0 0.0 0.0 0.0" Properties=species:S:1:pos:R:3:Z:I:1 pbc="F F F"
C      -0.69860322       0.06691749       0.80886410        6 
C       0.86543285      -0.12641015       0.83029238        6 
C      -1.51937308      -1.12702274       0.36820555        6 
C       1.33412317      -1.45450720       0.25485068        6 
O      -2.41879657      -1.45341664       1.31935611        8 
O      -1.40577768      -1.73817486      -0.66781590        8 
O       1.41760778      -1.46619688      -1.08148306        8 
O       1.62289318      -2.39821326       0.95397325        8 
C       1.69806062      -2.73882950      -1.68860726        6 
C      -3.28469590      -2.55955378       1.01392364        6 
C      -0.83637992       1.33135191      -0.12611935        6 
C      -0.53729978       2.55761242       0.76361949        6 
C       0.99083362       2.38190137       0.99264701        6 
C       1.31319118       1.16406258       0.07741933        6 
O       0.32713929       1.27538787      -0.95756955        8 
H      -1.04752691       0.31890559       1.80704314        1 
H       1.22381490      -0.12753310       1.85680206        1 
H       0.87783969      -3.42891583      -1.48651470        1 
H      -2.70230898      -3.46529511       0.83831108        1 
H      -0.75503848       3.47199054       0.20772173        1 
H      -1.12712850       2.56729809       1.67973764        1 
H       1.54956909       3.25705682       0.65791602        1 
H       1.25858306       2.19589244       2.03326012        1 
H       1.77062191      -2.53946647      -2.75555741        1 
H       2.63121440      -3.15463766      -1.30577998        1 
H      -3.88450115      -2.33976504       0.12874019        1 
H      -3.92273560      -2.67727983       1.88703282        1 
C      -2.06287724       1.40266715      -1.00990210        6 
C       2.70245793       1.16370477      -0.52943577        6 
O       3.61081148       0.81873556       0.50342668        8 
H       2.92711865       2.16321043      -0.92917020        1 
H       2.74873568       0.44225599      -1.35092158        1 
C       4.94864363       0.71777792       0.05421324        6 
H       5.55563599       0.43303041       0.91365619        1 
H       5.31196167       1.67642078      -0.34194356        1 
H       5.05015887      -0.04818157      -0.72682225        1 
O      -3.20477472       1.35464320      -0.17170249        8 
H      -2.05539852       0.55935809      -1.71155391        1 
H      -2.03876324       2.33638615      -1.58961278        1 
C      -4.41922719       1.28602327      -0.89450796        6 
H      -5.22582091       1.23831979      -0.16269743        1 
H      -4.45332976       0.39057785      -1.53036882        1 
H      -4.56035469       2.17304700      -1.52762091        1 
