43
Lattice="0.0 0.0 0.0 0.0 0.0 0.0 0.0 0.0 0.0" Properties=species:S:1:pos:R:3:Z:I:1 pbc="F F F"
C      -0.62014102       0.16269547       0.88786051        6 
C       0.92777655      -0.10618922       0.79407542        6 
C      -1.47903929      -1.09361823       0.90581386        6 
C       1.41072140      -1.39661142       0.15048206        6 
O      -2.24986096      -1.28583514      -0.17610293        8 
O      -1.48375971      -1.83594278       1.85980477        8 
O       0.44387187      -2.08917579      -0.47168738        8 
O       2.57242922      -1.73009110       0.12974764        8 
C       0.84405388      -3.30378758      -1.13003429        6 
C      -3.05203649      -2.47707216      -0.16740118        6 
C      -0.81132240       1.32018795      -0.15533142        6 
C      -0.41408534       2.62083352       0.57899220        6 
C       1.11404636       2.41982577       0.73901255        6 
C       1.35288453       1.12659337      -0.08766940        6 
O       0.29699414       1.14892153      -1.06105973        8 
H      -0.80871501       0.57030812       1.88205333        1 
H       1.40825412      -0.06273889       1.76993898        1 
H       1.26225777      -4.00588256      -0.40750698        1 
H      -3.75653007      -2.46163861       0.66553683        1 
H      -0.63786314       3.47732458      -0.05995038        1 
H      -0.94749397       2.75232912       1.52040770        1 
H       1.68202562       3.24602768       0.31010577        1 
H       1.43725798       2.30264051       1.77337220        1 
H      -0.06494544      -3.70329844      -1.57419377        1 
H       1.58644520      -3.09179208      -1.90034305        1 
H      -2.41790682      -3.36106923      -0.08172914        1 
H      -3.58250011      -2.47632794      -1.11770521        1 
C      -2.09618168       1.41781682      -0.94927886        6 
C       2.69938899       1.08518437      -0.78034436        6 
O       3.69150403       1.19495312       0.22306618        8 
H       2.75505742       1.93204503      -1.48019229        1 
H       2.82182270       0.16189374      -1.35497382        1 
C       4.96771898       0.74607679      -0.19671311        6 
H       5.64541341       0.88241123       0.64635502        1 
H       5.33861919       1.33036256      -1.05088528        1 
H       4.93647139      -0.31599073      -0.46720173        1 
O      -3.15826031       1.56936567      -0.02118017        8 
H      -2.23608653       0.52472898      -1.56243281        1 
H      -2.03433668       2.29385074      -1.61125054        1 
C      -4.43238379       1.46769209      -0.62424718        6 
H      -5.17440298       1.59566284       0.16431467        1 
H      -4.56994556       0.48407787      -1.09417420        1 
H      -4.58109940       2.24667408      -1.38539789        1 
