43
Lattice="0.0 0.0 0.0 0.0 0.0 0.0 0.0 0.0 0.0" Properties=species:S:1:pos:R:3:Z:I:1 pbc="F F F"
C      -0.65498184       0.00065248      -0.70218899        6 
C       0.91522419       0.10211779      -0.68409789        6 
C      -1.36619513       1.10695892       0.04744407        6 
C       1.43910566       1.38498667      -0.05382046        6 
O      -2.34764153       1.64374315      -0.70329547        8 
O      -1.12371313       1.46204066       1.17672175        8 
O       0.92199236       2.43821669      -0.73272216        8 
O       2.22905346       1.50854347       0.84464093        8 
C       1.23189023       3.74084825      -0.20736032        6 
C      -3.12845809       2.67286286      -0.07288074        6 
C      -0.85695585      -1.39962663      -0.00912938        6 
C      -0.49524948      -2.48091433      -1.05419601        6 
C       1.05299514      -2.36712180      -1.07905349        6 
C       1.30831447      -1.25381765      -0.02716942        6 
O       0.23875787      -1.46500052       0.91045194        8 
H      -1.04130220      -0.01671864      -1.71734075        1 
H       1.27830773       0.13905536      -1.71302785        1 
H       2.31079658       3.89799841      -0.17950805        1 
H      -2.49006249       3.50049527       0.24015833        1 
H      -0.81855807      -3.46046721      -0.69677261        1 
H      -0.97048979      -2.30193335      -2.01838418        1 
H       1.52543628      -3.29341451      -0.74855141        1 
H       1.46369858      -2.11507368      -2.05680513        1 
H       0.75848700       4.44697374      -0.88633028        1 
H       0.82313103       3.84089335       0.79967127        1 
H      -3.65082778       2.27596681       0.79947110        1 
H      -3.84045545       3.00010362      -0.82737120        1 
C      -2.15065957      -1.61774451       0.74740828        6 
C       2.64235645      -1.34648741       0.68377149        6 
O       3.64742840      -1.04720705      -0.27356840        8 
H       2.77098332      -2.36656357       1.07419717        1 
H       2.67222013      -0.63953122       1.51456034        1 
C       4.90126852      -0.76379997       0.32050687        6 
H       5.59976455      -0.55086999      -0.48947117        1 
H       5.27545238      -1.62151216       0.89736140        1 
H       4.83153316       0.10955436       0.98094736        1 
O      -3.21808550      -1.49866996      -0.17720235        8 
H      -2.24110686      -0.88112520       1.55543916        1 
H      -2.13340191      -2.61953540       1.20006351        1 
C      -4.49013599      -1.62301273       0.42769989        6 
H      -5.23377473      -1.50299129      -0.36032414        1 
H      -4.64640811      -0.84882980       1.19188067        1 
H      -4.61826973      -2.60906632       0.89592620        1 
