43
Lattice="0.0 0.0 0.0 0.0 0.0 0.0 0.0 0.0 0.0" Properties=species:S:1:pos:R:3:Z:I:1 pbc="F F F"
C      -0.73904276      -0.00202506      -0.68897469        6 
C       0.83688532       0.07629073      -0.65073136        6 
C      -1.46373173       1.15593758      -0.03453746        6 
C       1.39371204       1.22466459       0.17207268        6 
O      -2.04617058       1.93417098      -0.97562734        8 
O      -1.51711106       1.39554415       1.14574016        8 
O       1.67188332       2.27200124      -0.64274962        8 
O       1.52908735       1.26711689       1.36680548        8 
C       2.14951652       3.46123486       0.01069762        6 
C      -2.77227308       3.07224424      -0.48170440        6 
C      -0.98814758      -1.39683099      -0.01083201        6 
C      -0.69007551      -2.46954553      -1.08482322        6 
C       0.85997361      -2.38370547      -1.16909137        6 
C       1.17526247      -1.33311706      -0.06952230        6 
O       0.12211083      -1.54171232       0.88088244        8 
H      -1.06940568      -0.02769089      -1.72439643        1 
H       1.22687124       0.18754764      -1.65977596        1 
H       3.09525402       3.26348118       0.51810733        1 
H      -2.11190596       3.73385384       0.08148935        1 
H      -1.01450091      -3.44705220      -0.72275413        1 
H      -1.19805815      -2.27301171      -2.02886828        1 
H       1.32732974      -3.33657890      -0.91578632        1 
H       1.23098765      -2.08004112      -2.14853009        1 
H       2.28774768       4.19258848      -0.78281562        1 
H       1.42000291       3.81534100       0.74094691        1 
H      -3.59058059       2.74987549       0.16451132        1 
H      -3.15846932       3.57638721      -1.36494022        1 
C      -2.27828738      -1.55480749       0.76522848        6 
C       2.51786120      -1.47801814       0.61742870        6 
O       3.50609361      -1.01502330      -0.29201981        8 
H       2.68819332      -2.53353900       0.87257021        1 
H       2.52451411      -0.88558528       1.53685085        1 
C       4.80485239      -0.99611594       0.27079380        6 
H       5.48094845      -0.60974735      -0.49237885        1 
H       5.13064651      -2.00481724       0.56085067        1 
H       4.84372942      -0.34482188       1.15426436        1 
O      -3.34359737      -1.20888432      -0.10734753        8 
H      -2.26146193      -0.89665937       1.64012993        1 
H      -2.37522550      -2.59513299       1.10647738        1 
C      -4.60671647      -1.23631321       0.53135332        6 
H      -5.34892003      -0.93993941      -0.21025139        1 
H      -4.63845478      -0.53671310       1.37751122        1 
H      -4.84771811      -2.24402168       0.89748306        1 
