43
Lattice="0.0 0.0 0.0 0.0 0.0 0.0 0.0 0.0 0.0" Properties=species:S:1:pos:R:3:Z:I:1 pbc="F F F"
C      -0.58188337       0.16407122       0.86115662        6 
C       0.94845810      -0.17704200       0.73144655        6 
C      -1.51450116      -1.03492684       0.94363106        6 
C       1.35237992      -1.44856061      -0.00960662        6 
O      -2.31733532      -1.21698317      -0.11739474        8 
O      -1.53720358      -1.74749436       1.91916029        8 
O       0.31774162      -2.23255401      -0.34856616        8 
O       2.49404947      -1.71729121      -0.30083518        8 
C       0.63233582      -3.44718382      -1.05180645        6 
C      -3.19667164      -2.35029217      -0.04456862        6 
C      -0.74646865       1.33393610      -0.17771833        6 
C      -0.34774933       2.61652330       0.58194124        6 
C       1.15903371       2.34898319       0.82440694        6 
C       1.41297473       1.09449312      -0.06251903        6 
O       0.37999329       1.16926887      -1.06292599        8 
H      -0.71006561       0.59395434       1.85588749        1 
H       1.43282346      -0.23021497       1.70653803        1 
H       1.27598311      -4.08261637      -0.44224809        1 
H      -3.88136895      -2.25129540       0.79899162        1 
H      -0.49904349       3.48074587      -0.06809521        1 
H      -0.92715942       2.76669969       1.49288392        1 
H       1.78279052       3.17813124       0.48982142        1 
H       1.40485119       2.15727460       1.86940312        1 
H      -0.32491904      -3.93100204      -1.23248420        1 
H       1.13266053      -3.22211285      -1.99454149        1 
H      -2.62148286      -3.27060998       0.06957902        1 
H      -3.74487227      -2.35397733      -0.98473078        1 
C      -2.01328807       1.45030591      -0.99670353        6 
C       2.77599954       1.09813046      -0.72313620        6 
O       3.74107890       1.08117264       0.31369484        8 
H       2.86402778       2.01746086      -1.32135268        1 
H       2.89947573       0.24038169      -1.38774586        1 
C       5.03488330       0.72364696      -0.13665069        6 
H       5.69129387       0.73929967       0.73383274        1 
H       5.41358640       1.43867897      -0.88128436        1 
H       5.03169691      -0.28350106      -0.57064158        1 
O      -3.08706395       1.65371629      -0.09235061        8 
H      -2.16900198       0.54804883      -1.59334439        1 
H      -1.91275239       2.30922408      -1.67597240        1 
C      -4.35333747       1.56577019      -0.71354972        6 
H      -5.10438580       1.73007545       0.05965578        1 
H      -4.50675617       0.57435262      -1.16144984        1 
H      -4.47253939       2.32886445      -1.49571025        1 
