43
Lattice="0.0 0.0 0.0 0.0 0.0 0.0 0.0 0.0 0.0" Properties=species:S:1:pos:R:3:Z:I:1 pbc="F F F"
C      -0.70513314       0.08819291       0.86402780        6 
C       0.83394317      -0.13655825       0.80710957        6 
C      -1.68436779      -1.07504480       0.87173551        6 
C       1.40086239      -1.33027902       0.05373791        6 
O      -1.15666545      -2.26000745       0.51735455        8 
O      -2.82097915      -0.96003524       1.26611603        8 
O       0.82322076      -1.53994577      -1.14020385        8 
O       2.37938699      -1.93525439       0.42892945        8 
C       1.35018030      -2.62605326      -1.91522969        6 
C      -2.02905378      -3.40058749       0.61514924        6 
C      -0.92781465       1.24813569      -0.19305417        6 
C      -0.67820727       2.56478395       0.56866381        6 
C       0.83715195       2.41467097       0.88755605        6 
C       1.22755905       1.17456996       0.02948647        6 
O       0.24662433       1.18109252      -1.01624705        8 
H      -0.91567869       0.52875290       1.84064265        1 
H       1.28106868      -0.16686348       1.79774463        1 
H       1.20442386      -3.57309490      -1.39145348        1 
H      -2.88757186      -3.28227665      -0.04757537        1 
H      -0.86639423       3.41040626      -0.09515557        1 
H      -1.31245482       2.67018736       1.44768380        1 
H       1.41051087       3.28654972       0.57123841        1 
H       1.04238292       2.25355280       1.94653913        1 
H       0.78990338      -2.61564369      -2.84785755        1 
H       2.41560378      -2.48654352      -2.10628936        1 
H      -2.38143660      -3.52552160       1.63991931        1 
H      -1.42433671      -4.25188689       0.31030429        1 
C      -2.16559318       1.18674124      -1.06330611        6 
C       2.62343137       1.21881339      -0.55617662        6 
O       3.53016384       1.25485600       0.52888242        8 
H       2.72365768       2.11483050      -1.18602706        1 
H       2.80664612       0.34254030      -1.19087337        1 
C       4.86904478       0.99538678       0.14895685        6 
H       5.47267358       1.04493776       1.05517550        1 
H       5.23614325       1.74338429      -0.56811438        1 
H       4.96571847      -0.00491976      -0.29265840        1 
O      -3.25474638       1.68800729      -0.31499708        8 
H      -2.35103086       0.15346685      -1.38754267        1 
H      -1.99399141       1.79432456      -1.96392831        1 
C      -4.51551386       1.31388964      -0.83531016        6 
H      -5.27151338       1.75808210      -0.18787410        1 
H      -4.63474419       0.22291812      -0.82697258        1 
H      -4.65626667       1.68653890      -1.86012014        1 
