43
Lattice="0.0 0.0 0.0 0.0 0.0 0.0 0.0 0.0 0.0" Properties=species:S:1:pos:R:3:Z:I:1 pbc="F F F"
C      -0.76424900       0.14095011       0.94509857        6 
C       0.81369237       0.09792503       0.91028358        6 
C      -1.53575020      -1.15623211       0.80101046        6 
C       1.43418530      -1.24167651       0.54105670        6 
O      -1.18465824      -1.87049240      -0.28745995        8 
O      -2.41443773      -1.49630254       1.55508789        8 
O       1.52592912      -1.46238183      -0.78042927        8 
O       1.86083467      -2.01107982       1.37036424        8 
C       2.06102795      -2.73652892      -1.16800985        6 
C      -1.89836722      -3.10227741      -0.49293794        6 
C      -1.06856439       1.22806430      -0.15979133        6 
C      -0.84345477       2.60233090       0.50728979        6 
C       0.70085207       2.59825974       0.66261150        6 
C       1.09561203       1.28337771      -0.06841510        6 
O       0.05258330       1.13282568      -1.04475574        8 
H      -1.08841515       0.51995845       1.91158923        1 
H       1.20530565       0.30826530       1.90256419        1 
H       1.42481870      -3.54142174      -0.79529786        1 
H      -2.96487096      -2.90942803      -0.62104257        1 
H      -1.17471474       3.39324023      -0.16852078        1 
H      -1.38747233       2.70798103       1.44531204        1 
H       1.15740224       3.45334463       0.16183969        1 
H       1.03388943       2.60539408       1.70086884        1 
H       2.06799713      -2.72867978      -2.25608198        1 
H       3.07019649      -2.86894759      -0.77492074        1 
H      -1.75518191      -3.77147695       0.35646899        1 
H      -1.47591067      -3.53269313      -1.39856128        1 
C      -2.35157441       1.07990088      -0.94872094        6 
C       2.44741390       1.31830175      -0.75593934        6 
O       3.43328380       1.16198288       0.25124575        8 
H       2.56889461       2.28051834      -1.27400447        1 
H       2.51159681       0.51517468      -1.49583214        1 
C       4.74949746       1.10483971      -0.26368458        6 
H       5.42013722       0.95973486       0.58318966        1 
H       5.01881134       2.03612700      -0.78121168        1 
H       4.86620834       0.26590697      -0.96355563        1 
O      -3.42771408       1.27307837      -0.05066124        8 
H      -2.39801359       0.08764098      -1.41512784        1 
H      -2.36584772       1.83160682      -1.75155814        1 
C      -4.68678090       0.95361504      -0.60973590        6 
H      -5.43399365       1.12591940       0.16456800        1 
H      -4.72768191      -0.10015553      -0.91804318        1 
H      -4.91418122       1.58740271      -1.47861027        1 
