43
Lattice="0.0 0.0 0.0 0.0 0.0 0.0 0.0 0.0 0.0" Properties=species:S:1:pos:R:3:Z:I:1 pbc="F F F"
C      -0.67712058       0.02297396      -0.67691246        6 
C       0.88959503       0.11381415      -0.69223985        6 
C      -1.35703868       1.08947823       0.15860717        6 
C       1.46954371       1.43401962      -0.20656608        6 
O      -2.37057819       1.65857359      -0.52409563        8 
O      -1.08210687       1.37456853       1.29969379        8 
O       0.73780439       2.45571932      -0.70935182        8 
O       2.49610853       1.60380907       0.39964105        8 
C       1.15460023       3.78074015      -0.33737071        6 
C      -3.12683471       2.65114462       0.18790507        6 
C      -0.86450965      -1.39491061      -0.02568526        6 
C      -0.44755861      -2.45474891      -1.07599346        6 
C       1.10038990      -2.35926967      -1.00956649        6 
C       1.29924443      -1.21744839       0.01954728        6 
O       0.20559231      -1.44116918       0.92593092        8 
H      -1.09827330       0.05579630      -1.67787502        1 
H       1.22460900       0.07308393      -1.73249583        1 
H       2.18387335       3.96133871      -0.64948032        1 
H      -2.47763592       3.46386657       0.51785771        1 
H      -0.80477983      -3.44008407      -0.77142394        1 
H      -0.86107092      -2.24176168      -2.06183106        1 
H       1.54067355      -3.27725475      -0.61692856        1 
H       1.57502399      -2.14490433      -1.96681711        1 
H       0.47272820       4.45333620      -0.85340416        1 
H       1.07394982       3.90650442       0.74350591        1 
H      -3.61497044       2.20956585       1.05875024        1 
H      -3.86813154       3.01450768      -0.52061176        1 
C      -2.17640695      -1.66126541       0.68322357        6 
C       2.60984761      -1.27026682       0.77396832        6 
O       3.64949302      -1.14488502      -0.18255108        8 
H       2.67650802      -2.23706718       1.29428790        1 
H       2.65721281      -0.46908065       1.51522298        1 
C       4.89218383      -0.79080597       0.39683581        6 
H       5.61474101      -0.71640241      -0.41669496        1 
H       5.23575765      -1.55495417       1.10892855        1 
H       4.82039631       0.17610057       0.90861817        1 
O      -3.21235258      -1.57068889      -0.27954180        8 
H      -2.32412398      -0.93659595       1.49367164        1 
H      -2.14191489      -2.66550957       1.12974739        1 
C      -4.50190264      -1.71769789       0.28152535        6 
H      -5.22005660      -1.61805889      -0.53253600        1 
H      -4.70048764      -0.94168269       1.03407986        1 
H      -4.62631534      -2.70310839       0.75221034        1 
