43
Lattice="0.0 0.0 0.0 0.0 0.0 0.0 0.0 0.0 0.0" Properties=species:S:1:pos:R:3:Z:I:1 pbc="F F F"
C      -0.59083130      -0.01688959       0.85247752        6 
C       0.94405104      -0.23854462       0.80438596        6 
C      -1.45103913      -1.26725574       0.81726300        6 
C       1.46598899      -1.43579040       0.02232259        6 
O      -2.75589793      -0.94203955       0.93110309        8 
O      -1.06253975      -2.40724957       0.75221301        8 
O       0.78479645      -1.66576098      -1.11122141        8 
O       2.47933699      -2.02398976       0.32127729        8 
C       1.21270121      -2.79404570      -1.88919094        6 
C      -3.68455320      -2.04038448       0.94811464        6 
C      -0.80373878       1.16407813      -0.18369102        6 
C      -0.54708283       2.46404776       0.60625054        6 
C       0.96792877       2.30488226       0.92315563        6 
C       1.35350983       1.07491550       0.04978670        6 
O       0.37693780       1.10592758      -1.00086812        8 
H      -0.82938143       0.39759377       1.83670595        1 
H       1.39618976      -0.29522630       1.79160409        1 
H       1.08841367      -3.71354146      -1.31458231        1 
H      -3.47850562      -2.70424965       1.78898834        1 
H      -0.73250808       3.32357376      -0.04013268        1 
H      -1.18151003       2.55612494       1.48704707        1 
H       1.54325010       3.17955532       0.61829368        1 
H       1.17285882       2.12856321       1.97973016        1 
H       0.56815286      -2.80249169      -2.76567193        1 
H       2.25838361      -2.68833753      -2.18276560        1 
H      -3.61993845      -2.60967122       0.01915934        1 
H      -4.66690622      -1.58456470       1.05103923        1 
C      -2.02052110       1.15259833      -1.08643748        6 
C       2.75144824       1.11137604      -0.53026916        6 
O       3.65451035       1.12814826       0.55875253        8 
H       2.86418357       2.01186441      -1.15160928        1 
H       2.92615538       0.23789789      -1.17054221        1 
C       4.98068107       0.79055621       0.19328585        6 
H       5.58173005       0.83369513       1.10161342        1 
H       5.38914231       1.49997405      -0.54041750        1 
H       5.02576868      -0.22485037      -0.22019569        1 
O      -3.12044393       1.68932586      -0.37717707        8 
H      -2.23497465       0.13244392      -1.43070585        1 
H      -1.79311476       1.76593774      -1.97039632        1 
C      -4.34599450       1.52731880      -1.05912480        6 
H      -5.12445582       1.95893162      -0.42940966        1 
H      -4.56941892       0.46464417      -1.22973697        1 
H      -4.34179278       2.04551481      -2.02895531        1 
