43
Lattice="0.0 0.0 0.0 0.0 0.0 0.0 0.0 0.0 0.0" Properties=species:S:1:pos:R:3:Z:I:1 pbc="F F F"
C      -0.76549230      -0.04121329       0.82661310        6 
C       0.80616666       0.07637634       0.75056311        6 
C      -1.45364801      -1.30345961       0.34385605        6 
C       1.54529776      -1.10709611       0.14678734        6 
O      -0.90561891      -1.80974026      -0.77120517        8 
O      -2.44470597      -1.76066039       0.86317795        8 
O       1.78691908      -2.01800851       1.12233405        8 
O       1.84866976      -1.28564375      -1.00384201        8 
C       2.40968623      -3.24218382       0.69761624        6 
C      -1.52700578      -2.97970367      -1.32785772        6 
C      -1.19878343       1.22786574      -0.00719665        6 
C      -0.98324918       2.46644757       0.89272779        6 
C       0.56536058       2.57257941       0.88864877        6 
C       0.95944335       1.40579060      -0.05586514        6 
O      -0.14835517       1.35038159      -0.96976214        8 
H      -1.09925371       0.06933550       1.85592968        1 
H       1.19996792       0.19389526       1.75818285        1 
H       3.38646586      -3.04240916       0.25419942        1 
H      -2.55766708      -2.76482049      -1.61551321        1 
H      -1.44664281       3.33815828       0.42716079        1 
H      -1.42092793       2.34034601       1.88231907        1 
H       0.90055462       3.52082427       0.46526392        1 
H       1.01439024       2.47156198       1.87678678        1 
H       2.51431807      -3.84358524       1.59810139        1 
H       1.78307729      -3.75360508      -0.03546745        1 
H      -1.52230778      -3.79588566      -0.60344176        1 
H      -0.92869762      -3.23214457      -2.20025167        1 
C      -2.53888314       1.16279880      -0.71043199        6 
C       2.25033292       1.60614852      -0.82450580        6 
O       3.31537415       1.42578041       0.09828535        8 
H       2.27013999       2.62164447      -1.24514869        1 
H       2.31257193       0.88092172      -1.63944811        1 
C       4.58798315       1.44841133      -0.52014048        6 
H       5.32941667       1.29117530       0.26374367        1 
H       4.78043924       2.41535838      -1.00589266        1 
H       4.67743277       0.65108854      -1.26977010        1 
O      -3.54406697       1.21880690       0.28305806        8 
H      -2.61750331       0.24197325      -1.30312346        1 
H      -2.61964617       2.01263565      -1.40334030        1 
C      -4.80931243       0.77357508      -0.16887400        6 
H      -5.50001525       0.87309831       0.66829847        1 
H      -4.76778398      -0.27993368      -0.47394679        1 
H      -5.17345867       1.38036603      -1.00994045        1 
