43
Lattice="0.0 0.0 0.0 0.0 0.0 0.0 0.0 0.0 0.0" Properties=species:S:1:pos:R:3:Z:I:1 pbc="F F F"
C      -0.53300591      -0.02105944       0.84623801        6 
C       0.97246228      -0.36035688       0.74599459        6 
C      -1.47632964      -1.20053576       0.99017036        6 
C       1.35918242      -1.48510115      -0.20961971        6 
O      -2.76342219      -0.79957612       0.93435728        8 
O      -1.14891538      -2.34221727       1.19757100        8 
O       0.35323137      -1.88821894      -1.00145851        8 
O       2.50132150      -1.85441444      -0.36455534        8 
C       0.67998483      -2.86715798      -1.99996243        6 
C      -3.75488920      -1.82093487       1.13897540        6 
C      -0.70652865       1.14401624      -0.21281973        6 
C      -0.42532610       2.44016397       0.57078903        6 
C       1.05982650       2.19864479       0.96415333        6 
C       1.44670208       0.98196434       0.06648892        6 
O       0.49345400       1.05381039      -1.00918867        8 
H      -0.67476599       0.45257556       1.82503055        1 
H       1.45653774      -0.53646644       1.70420498        1 
H       1.08455797      -3.76633576      -1.53346437        1 
H      -3.64643853      -2.26844816       2.12819966        1 
H      -0.52763076       3.29911718      -0.09454066        1 
H      -1.09805193       2.57706102       1.41710441        1 
H       1.69095703       3.05490117       0.72643190        1 
H       1.19865425       1.97858301       2.02364184        1 
H      -0.25775145      -3.08933889      -2.50498794        1 
H       1.40947462      -2.46539744      -2.70542468        1 
H      -3.66342915      -2.60159067       0.38182848        1 
H      -4.71325811      -1.31317986       1.05283061        1 
C      -1.90364730       1.14987434      -1.14136853        6 
C       2.85985057       1.05275428      -0.47271820        6 
O       3.73187408       1.00130636       0.64284664        8 
H       2.97966270       2.00004981      -1.01959733        1 
H       3.06199944       0.22905136      -1.16193166        1 
C       5.06962045       0.70054414       0.28781630        6 
H       5.64748530       0.67755085       1.21210957        1 
H       5.49129807       1.46749718      -0.37753443        1 
H       5.13267269      -0.27810898      -0.20369171        1 
O      -2.99115218       1.77181310      -0.48270815        8 
H      -2.15939720       0.12655715      -1.44269517        1 
H      -1.62811568       1.71327691      -2.04435973        1 
C      -4.21142778       1.62104605      -1.17583223        6 
H      -4.97822585       2.13227748      -0.59299793        1 
H      -4.48345125       0.56089573      -1.27755258        1 
H      -4.16630826       2.06964247      -2.17885192        1 
