43
Lattice="0.0 0.0 0.0 0.0 0.0 0.0 0.0 0.0 0.0" Properties=species:S:1:pos:R:3:Z:I:1 pbc="F F F"
C      -0.68218817      -0.16665900       0.71017561        6 
C       0.88901954      -0.07024701       0.68437508        6 
C      -1.26909651      -1.44860177       0.13314893        6 
C       1.61723173      -1.21661804      -0.00414870        6 
O      -2.61691036      -1.39988737       0.11155265        8 
O      -0.65255206      -2.43705796      -0.17752069        8 
O       2.02238391      -2.11845025       0.91431798        8 
O       1.85648124      -1.31021898      -1.18184547        8 
C       2.60452856      -3.32025043       0.38384687        6 
C      -3.28396174      -2.59503531      -0.33383143        6 
C      -1.07718233       1.19744511       0.02436985        6 
C      -0.80936144       2.32637472       1.05340125        6 
C       0.73929134       2.40716036       1.03058427        6 
C       1.09175585       1.31408359      -0.00879326        6 
O      -0.01571457       1.37702194      -0.92288956        8 
H      -1.03987106      -0.15720615       1.74211462        1 
H       1.26650372      -0.04312025       1.70431389        1 
H       3.51724451      -3.09473900      -0.17037679        1 
H      -3.03977238      -3.43437514       0.31897538        1 
H      -1.26396319       3.25335140       0.70091955        1 
H      -1.23173977       2.10325988       2.03278684        1 
H       1.08385790       3.38052248       0.67691007        1 
H       1.20471726       2.21938382       1.99817665        1 
H       2.82670392      -3.94269819       1.24830477        1 
H       1.89073944      -3.81541516      -0.27618386        1 
H      -2.99074414      -2.83968611      -1.35599358        1 
H      -4.34653495      -2.36752693      -0.28248822        1 
C      -2.39989890       1.33385044      -0.70323626        6 
C       2.38846044       1.53222040      -0.76196559        6 
O       3.44707019       1.26610178       0.14653829        8 
H       2.43217121       2.57244119      -1.11549790        1 
H       2.43374456       0.85992640      -1.62188243        1 
C       4.71826811       1.26844937      -0.47565663        6 
H       5.45438173       1.04253318       0.29634290        1 
H       4.94814091       2.24994012      -0.91372975        1 
H       4.77346555       0.50661417      -1.26450361        1 
O      -3.43146612       1.42991030       0.26121883        8 
H      -2.57177250       0.48884912      -1.37782653        1 
H      -2.35088853       2.24983382      -1.31005702        1 
C      -4.72162932       1.34582396      -0.30696439        6 
H      -5.44019311       1.43789284       0.50783903        1 
H      -4.87033488       0.38123967      -0.81203381        1 
H      -4.89713302       2.15323803      -1.03234702        1 
