43
Lattice="0.0 0.0 0.0 0.0 0.0 0.0 0.0 0.0 0.0" Properties=species:S:1:pos:R:3:Z:I:1 pbc="F F F"
C      -0.67022419       0.04965017       0.77164844        6 
C       0.84412096      -0.28062483       0.68614426        6 
C      -1.65397130      -1.10283124       0.74197145        6 
C       1.23558955      -1.36534351      -0.31011694        6 
O      -1.08037502      -2.22807253       1.22819323        8 
O      -2.84110452      -1.01099641       0.54819597        8 
O       0.22118169      -1.74881204      -1.10905984        8 
O       2.37261544      -1.74097574      -0.47664261        8 
C       0.54887551      -2.67217660      -2.16000596        6 
C      -1.94965500      -3.36040656       1.39482783        6 
C      -0.81670532       1.29977245      -0.17274299        6 
C      -0.51381002       2.52214087       0.71604010        6 
C       0.97164328       2.24330292       1.07229312        6 
C       1.33407048       1.09270589       0.08490686        6 
O       0.37940638       1.25201197      -0.97922068        8 
H      -0.84970632       0.41228331       1.79117066        1 
H       1.31067371      -0.50368574       1.64269003        1 
H       0.97437362      -3.58727165      -1.74536480        1 
H      -2.38635556      -3.64984349       0.43745485        1 
H      -0.61900286       3.43412877       0.12585763        1 
H      -1.17864152       2.59076816       1.57619295        1 
H       1.60820843       3.10947526       0.89193644        1 
H       1.12041455       1.94242758       2.11013003        1 
H      -0.39168101      -2.88042856      -2.66565072        1 
H       1.26392858      -2.22398048      -2.85162703        1 
H      -2.75117371      -3.12964154       2.09833684        1 
H      -1.31693749      -4.15643298       1.78166089        1 
C      -2.03282570       1.41106535      -1.06766107        6 
C       2.74432952       1.18096680      -0.45942699        6 
O       3.62555390       1.05952196       0.64256516        8 
H       2.86600433       2.15754938      -0.95175952        1 
H       2.93500819       0.39785306      -1.19846425        1 
C       4.96872365       0.83750405       0.25376505        6 
H       5.55826848       0.76312834       1.16783958        1 
H       5.35398689       1.66936751      -0.35317026        1 
H       5.06250382      -0.09618550      -0.31494556        1 
O      -3.10829399       1.88927554      -0.28077703        8 
H      -2.27151182       0.44048855      -1.51524949        1 
H      -1.79994610       2.11797757      -1.87725342        1 
C      -4.37907439       1.60353328      -0.83463356        6 
H      -5.12287212       2.02200796      -0.15588551        1 
H      -4.53280577       0.52106171      -0.91488464        1 
H      -4.50028345       2.06599157      -1.82491990        1 
