43
Lattice="0.0 0.0 0.0 0.0 0.0 0.0 0.0 0.0 0.0" Properties=species:S:1:pos:R:3:Z:I:1 pbc="F F F"
C      -0.56896528       0.02246658       0.85907131        6 
C       0.95543627      -0.25529928       0.77800032        6 
C      -1.42820030      -1.22778836       0.92139496        6 
C       1.38912338      -1.44678703      -0.06247268        6 
O      -2.72380290      -0.97662702       0.65943056        8 
O      -1.01946512      -2.31509101       1.25016311        8 
O       0.49229125      -1.78632671      -1.00517732        8 
O       2.49065669      -1.94006775       0.00874134        8 
C       0.85889467      -2.87267881      -1.86995043        6 
C      -3.62418168      -2.09087198       0.80049158        6 
C      -0.76214626       1.20029554      -0.17913844        6 
C      -0.45578844       2.49353917       0.60495307        6 
C       1.05314604       2.28530196       0.91494326        6 
C       1.39810613       1.05182882       0.02965503        6 
O       0.41020397       1.10799031      -1.01173341        8 
H      -0.76368599       0.45548588       1.84736718        1 
H       1.43572712      -0.35209369       1.74869056        1 
H       0.98861961      -3.78873348      -1.29135996        1 
H      -3.60137175      -2.47385365       1.82174450        1 
H      -0.61425901       3.35615213      -0.04467824        1 
H      -1.08219244       2.61149794       1.48876160        1 
H       1.65503281       3.14415279       0.61690654        1 
H       1.25664564       2.09233744       1.96896906        1 
H       0.03247541      -2.97795557      -2.56973651        1 
H       1.78446401      -2.64527643      -2.40095776        1 
H      -3.35191349      -2.89187074       0.11149267        1 
H      -4.60937415      -1.69598930       0.56176444        1 
C      -1.98497162       1.24433388      -1.07078750        6 
C       2.79003790       1.07373657      -0.56552832        6 
O       3.70533806       1.07006153       0.51411292        8 
H       2.90353508       1.98240774      -1.17499992        1 
H       2.95077671       0.20716058      -1.21605968        1 
C       5.01732512       0.69364367       0.13468044        6 
H       5.62909079       0.71994853       1.03660097        1 
H       5.43874315       1.39135613      -0.60307175        1 
H       5.02685101      -0.32222670      -0.27893251        1 
O      -3.06996470       1.75908213      -0.32111178        8 
H      -2.21441144       0.24672941      -1.46147738        1 
H      -1.75742769       1.90280781      -1.92178551        1 
C      -4.31061600       1.61373857      -0.97856483        6 
H      -5.07531943       2.02587864      -0.31939266        1 
H      -4.53468368       0.55565651      -1.17341116        1 
H      -4.33006572       2.15916065      -1.93320974        1 
