43
Lattice="0.0 0.0 0.0 0.0 0.0 0.0 0.0 0.0 0.0" Properties=species:S:1:pos:R:3:Z:I:1 pbc="F F F"
C      -0.85247014       0.02029201      -0.67896654        6 
C       0.71747653       0.18440953      -0.69120298        6 
C      -1.63785616       1.18088058      -0.08840691        6 
C       1.20892265       1.49846467      -0.08736219        6 
O      -2.11694859       1.96369229      -1.07457673        8 
O      -1.88600874       1.35045998       1.08058559        8 
O       2.47467916       1.44232210       0.36066524        8 
O       0.57208349       2.52398309      -0.09860058        8 
C       3.02286969       2.68147898       0.85030729        6 
C      -2.80622953       3.14875733      -0.64601107        6 
C      -1.01451291      -1.33986905       0.08053132        6 
C      -0.69974064      -2.46034304      -0.93514063        6 
C       0.83211472      -2.29498105      -1.09967028        6 
C       1.14802786      -1.18357472      -0.05577509        6 
O       0.13514967      -1.37690872       0.94327431        8 
H      -1.20770346      -0.08661830      -1.70181740        1 
H       1.07575595       0.23348967      -1.72299657        1 
H       2.43270672       3.05295830       1.68882976        1 
H      -2.12378470       3.79115954      -0.08714493        1 
H      -0.94883625      -3.42815448      -0.49548611        1 
H      -1.26459483      -2.35437851      -1.86110516        1 
H       1.36616423      -3.20921412      -0.83809971        1 
H       1.14123057      -2.01171617      -2.10576417        1 
H       4.03566435       2.44206789       1.16720400        1 
H       3.03529466       3.43141139       0.05820950        1 
H      -3.66077935       2.89038441      -0.01871689        1 
H      -3.13523087       3.64056070      -1.55914549        1 
C      -2.27518135      -1.54280258       0.89530600        6 
C       2.51052900      -1.34689654       0.58682797        6 
O       3.48463089      -1.24581628      -0.43708975        8 
H       2.54412887      -2.34187617       1.05471670        1 
H       2.67355106      -0.59504343       1.36228359        1 
C       4.80525653      -1.20554232       0.06231437        6 
H       5.47327768      -1.12826570      -0.79597048        1 
H       5.05151821      -2.11648448       0.62660447        1 
H       4.95557677      -0.33502961       0.71556947        1 
O      -3.37318401      -1.36123494       0.01308122        8 
H      -2.31004449      -0.82167370       1.71552421        1 
H      -2.27554860      -2.56055650       1.31152923        1 
C      -4.62050646      -1.34702220       0.68135223        6 
H      -5.38846032      -1.18724357      -0.07606637        1 
H      -4.66409346      -0.53553129       1.41964833        1 
H      -4.81353344      -2.30167846       1.19092616        1 
