43
Lattice="0.0 0.0 0.0 0.0 0.0 0.0 0.0 0.0 0.0" Properties=species:S:1:pos:R:3:Z:I:1 pbc="F F F"
C      -0.78384625       0.08398931      -0.77356149        6 
C       0.75463994       0.22522864      -0.65084730        6 
C      -1.70851523       1.29266766      -0.77966532        6 
C       1.24977992       1.19015229       0.41823685        6 
O      -1.08944919       2.46238962      -0.55846226        8 
O      -2.86091715       1.22106090      -1.13968662        8 
O       2.54755004       1.51071014       0.18058268        8 
O       0.62086461       1.64563035       1.33604755        8 
C       3.15093966       2.40788284       1.12719129        6 
C      -1.89928371       3.64362224      -0.69121607        6 
C      -1.10372901      -1.16140247       0.15035114        6 
C      -0.96812038      -2.39608259      -0.75973363        6 
C       0.54247365      -2.30019296      -1.11871257        6 
C       1.05099123      -1.22955651      -0.10694628        6 
O       0.08609718      -1.29278358       0.95331028        8 
H      -0.95714831      -0.26579598      -1.79549959        1 
H       1.25507617       0.43002681      -1.59447626        1 
H       3.13414092       1.97748196       2.13040689        1 
H      -2.73902200       3.60884219       0.00388838        1 
H      -1.18854317      -3.29860576      -0.18690115        1 
H      -1.63617338      -2.36362427      -1.61950317        1 
H       1.06495190      -3.24407114      -0.96020403        1 
H       0.72435831      -1.99758946      -2.15077689        1 
H       4.17507135       2.54487113       0.78614211        1 
H       2.62067616       3.36152226       1.14193020        1 
H      -2.28074684       3.73364661      -1.70981315        1 
H      -1.23822481       4.47295994      -0.45020999        1 
C      -2.32110071      -1.09521521       1.04858414        6 
C       2.43655429      -1.50722945       0.43795903        6 
O       3.33696027      -1.46202039      -0.65288975        8 
H       2.43805974      -2.50153241       0.90804085        1 
H       2.71473679      -0.77468515       1.20508575        1 
C       4.69288588      -1.49900443      -0.25435896        6 
H       5.29560941      -1.45658036      -1.16174521        1 
H       4.92833322      -2.42454438       0.28984171        1 
H       4.94025020      -0.63910973       0.38306461        1 
O      -3.44971693      -1.49571015       0.29583860        8 
H      -2.44696130      -0.07827328       1.44159872        1 
H      -2.16226009      -1.76881597       1.90322429        1 
C      -4.67804233      -1.07435441       0.85580780        6 
H      -5.46916414      -1.45294796       0.20834917        1 
H      -4.73786894       0.02083457       0.89071972        1 
H      -4.81996934      -1.47768120       1.86885358        1 
