43
Lattice="0.0 0.0 0.0 0.0 0.0 0.0 0.0 0.0 0.0" Properties=species:S:1:pos:R:3:Z:I:1 pbc="F F F"
C      -0.71237222      -0.23144741       0.63907639        6 
C       0.84425036       0.03337825       0.67963684        6 
C      -1.07593410      -1.46895726      -0.18688879        6 
C       1.72987388      -1.15458610       0.34471910        6 
O      -2.16050791      -1.32271530      -0.96332239        8 
O      -0.48449271      -2.51890686      -0.10146926        8 
O       1.83275681      -1.94551386       1.43221882        8 
O       2.35226431      -1.33886432      -0.67220912        8 
C       2.52258662      -3.19078171       1.23761648        6 
C      -2.56683353      -2.48804819      -1.70682968        6 
C      -1.18012956       1.16208046       0.11690639        6 
C      -0.78094831       2.22852005       1.18759490        6 
C       0.70329142       2.50019126       0.84012404        6 
C       0.96893676       1.35529632      -0.15666122        6 
O      -0.23661821       1.38060519      -0.94707661        8 
H      -1.09698400      -0.43499606       1.64009882        1 
H       1.10402143       0.25721433       1.71419726        1 
H       3.54502196      -3.01728468       0.89891060        1 
H      -2.83701675      -3.29732520      -1.02708756        1 
H      -1.39760014       3.12115393       1.08097588        1 
H      -0.92681394       1.85351514       2.20176934        1 
H       0.82537268       3.45690267       0.32810738        1 
H       1.37686636       2.47936967       1.69639769        1 
H       2.51813458      -3.68042704       2.20919022        1 
H       1.98802900      -3.79410151       0.50224039        1 
H      -1.76165714      -2.82032414      -2.36280926        1 
H      -3.43030908      -2.17041695      -2.28751186        1 
C      -2.59340754       1.35917472      -0.39911695        6 
C       2.17439748       1.53122770      -1.05311555        6 
O       3.31905731       1.54159276      -0.21388615        8 
H       2.08051102       2.48393464      -1.59454844        1 
H       2.22671116       0.71328331      -1.77531611        1 
C       4.52454424       1.30376048      -0.91861041        6 
H       5.33386402       1.34013293      -0.18858897        1 
H       4.70018268       2.07279757      -1.68406656        1 
H       4.50800997       0.31639193      -1.39578977        1 
O      -3.48054143       0.98462271       0.64225508        8 
H      -2.77017230       0.76712853      -1.29809059        1 
H      -2.72341952       2.42223275      -0.65001453        1 
C      -4.83874594       1.05540787       0.25746957        6 
H      -5.43521019       0.75489748       1.11928536        1 
H      -5.05076962       0.37777570      -0.58118446        1 
H      -5.12123327       2.07670391      -0.03520719        1 
