43
Lattice="0.0 0.0 0.0 0.0 0.0 0.0 0.0 0.0 0.0" Properties=species:S:1:pos:R:3:Z:I:1 pbc="F F F"
C      -0.75514937       0.16385056       0.95391739        6 
C       0.82413552       0.10742326       0.90781282        6 
C      -1.49981678      -1.15160282       0.83788648        6 
C       1.39568174      -1.25101963       0.53199384        6 
O      -1.26813178      -1.78951020      -0.32932967        8 
O      -2.24044678      -1.58027563       1.68751363        8 
O       1.52361081      -1.45027992      -0.78987731        8 
O       1.72649332      -2.06755339       1.35952120        8 
C       1.98010727      -2.75224507      -1.18710428        6 
C      -1.93728685      -3.05074185      -0.50376655        6 
C      -1.05473022       1.24723710      -0.15233818        6 
C      -0.82146702       2.61994234       0.51587604        6 
C       0.72351000       2.60635492       0.67159593        6 
C       1.11080668       1.29211155      -0.06564785        6 
O       0.06519253       1.15136926      -1.04053269        8 
H      -1.06790165       0.54628922       1.92255369        1 
H       1.22524149       0.30563329       1.89882564        1 
H       1.27152835      -3.51489161      -0.85888930        1 
H      -3.01922802      -2.92233381      -0.44388539        1 
H      -1.14673852       3.41330331      -0.16003377        1 
H      -1.36353586       2.72979948       1.45480491        1 
H       1.18531643       3.46148974       0.17583479        1 
H       1.05543583       2.60621730       1.71032944        1 
H       2.03094547      -2.72193931      -2.27358516        1 
H       2.96009979      -2.96735908      -0.75877829        1 
H      -1.61841763      -3.75917283       0.26237579        1 
H      -1.64624049      -3.39716866      -1.49336287        1 
C      -2.33544302       1.10038329      -0.94474283        6 
C       2.46224298       1.31891353      -0.75443366        6 
O       3.44774370       1.13318974       0.24837366        8 
H       2.59756655       2.28686096      -1.25819961        1 
H       2.51313491       0.52566946      -1.50600035        1 
C       4.76288610       1.07595952      -0.26967272        6 
H       5.43471528       0.92076629       0.57448771        1 
H       5.03449104       2.01109778      -0.77891261        1 
H       4.87515942       0.24327532      -0.97767279        1 
O      -3.41368860       1.18417732      -0.03134318        8 
H      -2.33931569       0.13963354      -1.47326362        1 
H      -2.38817235       1.90405003      -1.69382814        1 
C      -4.67134987       0.93748710      -0.62990610        6 
H      -5.42155674       1.01410035       0.15681498        1 
H      -4.71283787      -0.06915146      -1.06880706        1 
H      -4.89371042       1.67400987      -1.41482211        1 
