43
Lattice="0.0 0.0 0.0 0.0 0.0 0.0 0.0 0.0 0.0" Properties=species:S:1:pos:R:3:Z:I:1 pbc="F F F"
C      -0.65446490      -0.10772435       0.81444692        6 
C       0.87378995      -0.36724344       0.70455134        6 
C      -1.52600832      -1.33588296       1.02001756        6 
C       1.17295618      -1.45302503      -0.34439703        6 
O      -2.77865970      -1.16897870       0.55494744        8 
O      -1.15459121      -2.32829748       1.59268576        8 
O       2.45227907      -1.40451806      -0.77693148        8 
O       0.44023217      -2.36074126      -0.64405744        8 
C       2.84960505      -2.46021342      -1.67070756        6 
C      -3.68018799      -2.26864254       0.77655221        6 
C      -0.88624996       1.07085486      -0.21152953        6 
C      -0.72530944       2.35254487       0.62543925        6 
C       0.74646404       2.17828228       1.09109518        6 
C       1.26769957       1.04841427       0.14381930        6 
O       0.34702958       1.09813016      -0.96942318        8 
H      -0.79323618       0.34691093       1.80362269        1 
H       1.35205843      -0.63528106       1.64513112        1 
H       2.24398605      -2.44129075      -2.57805893        1 
H      -3.78599799      -2.46876543       1.84384888        1 
H      -0.84066518       3.22697490      -0.01774012        1 
H      -1.44889403       2.42189297       1.43729298        1 
H       1.33152877       3.08720037       0.95238162        1 
H       0.83726284       1.89483378       2.14093229        1 
H       3.89434324      -2.26390997      -1.90338577        1 
H       2.73844717      -3.43140262      -1.18663725        1 
H      -3.31227260      -3.16613801       0.27722329        1 
H      -4.63074208      -1.95225538       0.35193240        1 
C      -2.04742164       1.04127921      -1.18356255        6 
C       2.67984602       1.32290892      -0.33952915        6 
O       3.54735240       1.12246528       0.76323303        8 
H       2.72823147       2.36734261      -0.68286715        1 
H       2.95111120       0.67466850      -1.17291458        1 
C       4.91283433       1.22184879       0.41136778        6 
H       5.49327200       1.04909518       1.31794301        1 
H       5.15498513       2.21819162       0.01483223        1 
H       5.18366361       0.46741329      -0.34015610        1 
O      -3.20303955       1.52178992      -0.52131796        8 
H      -2.20716911       0.02681833      -1.56450914        1 
H      -1.79184636       1.69391810      -2.03124409        1 
C      -4.38700107       1.31094181      -1.26090295        6 
H      -5.21265617       1.70063988      -0.66464602        1 
H      -4.55147911       0.24122705      -1.45023617        1 
H      -4.36161144       1.83952206      -2.22486919        1 
