43
Lattice="0.0 0.0 0.0 0.0 0.0 0.0 0.0 0.0 0.0" Properties=species:S:1:pos:R:3:Z:I:1 pbc="F F F"
C      -0.80630726       0.12296916       0.90771719        6 
C       0.77316148       0.14448478       0.94625615        6 
C      -1.40266118      -1.22994569       0.55157605        6 
C       1.49356553      -1.18052824       0.79464687        6 
O      -1.62229527      -1.41482797      -0.75974961        8 
O      -1.67261201      -2.05700410       1.39084068        8 
O       1.17688045      -1.82412438      -0.34937548        8 
O       2.28817398      -1.60953191       1.59369676        8 
C       1.81062430      -3.09896202      -0.55283454        6 
C      -2.11889087      -2.70861530      -1.13552037        6 
C      -1.07557424       1.31182984      -0.06455184        6 
C      -0.66571850       2.61892759       0.67345546        6 
C       0.87924974       2.60424434       0.52196426        6 
C       1.08891805       1.23108488      -0.15291252        6 
O      -0.03235641       1.15514903      -1.04084523        8 
H      -1.19530667       0.33352606       1.90140967        1 
H       1.10535170       0.50774470       1.91580087        1 
H       1.52845770      -3.79310146       0.24025743        1 
H      -3.08328443      -2.90420494      -0.66424701        1 
H      -1.10999910       3.48212821       0.17572543        1 
H      -1.00095920       2.62560910       1.71112691        1 
H       1.22185100       3.39505206      -0.14831843        1 
H       1.42201631       2.69778123       1.46205712        1 
H       1.45078264      -3.44991326      -1.51791803        1 
H       2.89622804      -2.98981054      -0.56405029        1 
H      -1.41181590      -3.48465015      -0.83749002        1 
H      -2.21769870      -2.67713567      -2.21868056        1 
C      -2.42663055       1.36592064      -0.75347737        6 
C       2.37003476       1.06938570      -0.94186762        6 
O       3.44674091       1.18626249      -0.03065892        8 
H       2.41712455       1.85154719      -1.71376599        1 
H       2.38187631       0.09462111      -1.44476255        1 
C       4.70102550       0.87513527      -0.60558163        6 
H       5.44921409       0.98410500       0.17921709        1 
H       4.94369995       1.55565744      -1.43385309        1 
H       4.72103477      -0.15818282      -0.97874237        1 
O      -3.41581947       1.17560843       0.24515618        8 
H      -2.48619179       0.58625966      -1.51778908        1 
H      -2.55031441       2.34400819      -1.24029168        1 
C      -4.73035480       1.14292130      -0.27637622        6 
H      -5.40628298       0.98368440       0.56379539        1 
H      -4.85130570       0.32265745      -0.99736232        1 
H      -4.98903820       2.08903515      -0.77195538        1 
