43
Lattice="0.0 0.0 0.0 0.0 0.0 0.0 0.0 0.0 0.0" Properties=species:S:1:pos:R:3:Z:I:1 pbc="F F F"
C      -0.73921813      -0.03017541       0.82630737        6 
C       0.83146093       0.05424880       0.76350514        6 
C      -1.36365828      -1.28800647       0.25667616        6 
C       1.52825427      -1.22297231       0.32016784        6 
O      -0.92064655      -1.55267533      -0.99298155        8 
O      -2.17772802      -1.96909569       0.82830379        8 
O       1.04448662      -2.26108321       1.04137726        8 
O       2.43669916      -1.34007704      -0.46174916        8 
C       1.59884576      -3.55520781       0.75098457        6 
C      -1.44266075      -2.73874214      -1.61299766        6 
C      -1.12563815       1.26201080       0.02406532        6 
C      -0.83041292       2.48004033       0.93288969        6 
C       0.71783148       2.55184456       0.85117208        6 
C       1.04025759       1.35272759      -0.07951336        6 
O      -0.09232437       1.34345268      -0.96585934        8 
H      -1.10243834       0.02999555       1.84875006        1 
H       1.21211507       0.21502981       1.77509692        1 
H       2.66517937      -3.57591458       0.98115100        1 
H      -2.52409623      -2.66228373      -1.73943089        1 
H      -1.29724386       3.37361332       0.51468926        1 
H      -1.21659929       2.34198922       1.94262866        1 
H       1.04929601       3.47675826       0.37655915        1 
H       1.21849028       2.47499957       1.81603076        1 
H       1.05447717      -4.25111713       1.38538527        1 
H       1.45493350      -3.80112518      -0.30253823        1 
H      -1.21818316      -3.61731376      -1.00559508        1 
H      -0.94803160      -2.80180428      -2.57982508        1 
C      -2.48453570       1.26761807      -0.64485777        6 
C       2.31756847       1.50756131      -0.87735697        6 
O       3.38631693       1.53960238       0.05562764        8 
H       2.26790763       2.44999211      -1.44251548        1 
H       2.43327741       0.67821556      -1.57784041        1 
C       4.65242740       1.35080354      -0.54871969        6 
H       5.39762565       1.40237671       0.24585231        1 
H       4.86530136       2.13603108      -1.28813234        1 
H       4.70941154       0.37051435      -1.03750948        1 
O      -3.45914211       1.22815926       0.38048659        8 
H      -2.58546872       0.40649410      -1.31799826        1 
H      -2.58388217       2.18026013      -1.25044340        1 
C      -4.77296973       1.02943757      -0.10520580        6 
H      -5.43435094       1.00675536       0.76073523        1 
H      -4.85627578       0.07588562      -0.64411249        1 
H      -5.08251063       1.84500015      -0.77399450        1 
