43
Lattice="0.0 0.0 0.0 0.0 0.0 0.0 0.0 0.0 0.0" Properties=species:S:1:pos:R:3:Z:I:1 pbc="F F F"
C      -0.68898938      -0.10349013      -0.67779215        6 
C       0.85333925       0.23210828      -0.61192486        6 
C      -1.67073506       0.99068115      -0.29241200        6 
C       1.29741970       1.44808367       0.20253854        6 
O      -1.90896482       1.77007784      -1.37199448        8 
O      -2.25092237       1.12476194       0.75615065        8 
O       0.35406777       2.40400696       0.25290149        8 
O       2.39426517       1.59817385       0.68331927        8 
C       0.68592677       3.60011323       0.98078659        6 
C      -2.80743594       2.86940075      -1.16550201        6 
C      -0.75366057      -1.45710178       0.11896481        6 
C      -0.37833122      -2.56171434      -0.88996147        6 
C       1.11156232      -2.22368846      -1.14369179        6 
C       1.38731438      -1.13357924      -0.06466874        6 
O       0.41535395      -1.41599349       0.95721941        8 
H      -0.92591150      -0.30645767      -1.72162234        1 
H       1.24366361       0.41860887      -1.61495398        1 
H       1.55557658       4.08617672       0.53684715        1 
H      -2.41178411       3.54541693      -0.40522521        1 
H      -0.49068061      -3.53726140      -0.41269381        1 
H      -1.00293121      -2.54396783      -1.78263320        1 
H       1.75992249      -3.08516350      -0.98225383        1 
H       1.30971683      -1.85247385      -2.14991026        1 
H      -0.19305836       4.23597061       0.90537942        1 
H       0.89586787       3.36124274       2.02395479        1 
H      -3.78844388       2.51080564      -0.84959273        1 
H      -2.87625334       3.37536459      -2.12621465        1 
C      -1.97930311      -1.74233254       0.95953328        6 
C       2.78411230      -1.21051553       0.51710937        6 
O       3.69068133      -0.93682752      -0.53740510        8 
H       2.93791130      -2.22863728       0.90526502        1 
H       2.90589290      -0.50087366       1.33710286        1 
C       5.00796111      -0.68910429      -0.08280259        6 
H       5.62174810      -0.50248466      -0.96462978        1 
H       5.41573471      -1.55513878       0.45826433        1 
H       5.03733130       0.19023547       0.57229843        1 
O      -3.09011595      -1.78037081       0.07554065        8 
H      -2.10852439      -0.96426928       1.71469253        1 
H      -1.84871435      -2.71258553       1.46047524        1 
C      -4.33320275      -1.73868336       0.75177641        6 
H      -5.11379708      -1.78382775      -0.00840955        1 
H      -4.43595450      -0.80863447       1.32510443        1 
H      -4.44817314      -2.59412051       1.43229316        1 
