43
Lattice="0.0 0.0 0.0 0.0 0.0 0.0 0.0 0.0 0.0" Properties=species:S:1:pos:R:3:Z:I:1 pbc="F F F"
C      -0.68949050      -0.16473269       0.74839854        6 
C       0.85430150      -0.28078044       0.65052475        6 
C      -1.50975191      -1.42413762       0.53738399        6 
C       1.39387559      -1.28820033      -0.35590165        6 
O      -2.76449871      -1.21580998       1.00077139        8 
O      -1.15536842      -2.47008789       0.05799951        8 
O       2.46775333      -1.92847430       0.16970085        8 
O       0.97747103      -1.49859009      -1.46333345        8 
C       3.07795449      -2.91306531      -0.68216511        6 
C      -3.68745094      -2.30553013       0.83953773        6 
C      -0.99637669       1.12094662      -0.12747769        6 
C      -0.82978525       2.32302304       0.82335214        6 
C       0.69314139       2.22470354       1.12777493        6 
C       1.16033667       1.15650015       0.09546987        6 
O       0.17833577       1.25484240      -0.94289512        8 
H      -0.92517043       0.10502412       1.77985506        1 
H       1.32447884      -0.45582200       1.61504450        1 
H       3.48240508      -2.44531883      -1.58213850        1 
H      -3.34024998      -3.18747522       1.38032688        1 
H      -1.07296112       3.24402260       0.29040197        1 
H      -1.46712715       2.26015892       1.70488839        1 
H       1.20789125       3.17010934       0.95236740        1 
H       0.90982918       1.91719998       2.15150731        1 
H       3.87701393      -3.35486345      -0.09035441        1 
H       2.34720585      -3.66950316      -0.97232696        1 
H      -3.80161992      -2.55787483      -0.21632013        1 
H      -4.62911726      -1.94909607       1.25156442        1 
C      -2.21641666       1.11759564      -1.02603700        6 
C       2.54397427       1.38279567      -0.47704294        6 
O       3.46429554       1.30221807       0.59603973        8 
H       2.57838853       2.37380587      -0.95265990        1 
H       2.77103744       0.63505418      -1.24811341        1 
C       4.81310882       1.31233020       0.17080567        6 
H       5.43233941       1.24446714       1.06536462        1 
H       5.05892506       2.23874718      -0.36713993        1 
H       5.02905887       0.45557050      -0.48239732        1 
O      -3.35129558       1.46590926      -0.25590664        8 
H      -2.34348292       0.13227649      -1.49565992        1 
H      -2.05235777       1.85024029      -1.82901738        1 
C      -4.56686545       1.27068049      -0.94806622        6 
H      -5.37075028       1.58191361      -0.28046633        1 
H      -4.70887043       0.21351903      -1.21368025        1 
H      -4.61100415       1.87235366      -1.86716389        1 
