43
Lattice="0.0 0.0 0.0 0.0 0.0 0.0 0.0 0.0 0.0" Properties=species:S:1:pos:R:3:Z:I:1 pbc="F F F"
C      -0.85817618      -0.12656715       0.82507639        6 
C       0.70525667       0.07250246       0.80593805        6 
C      -1.32445517      -1.45061489       0.23914961        6 
C       1.53206128      -1.11848491       0.36643465        6 
O      -1.39847834      -1.45488271      -1.09781263        8 
O      -1.62258104      -2.39708989       0.93074420        8 
O       2.41192672      -1.45947641       1.33050882        8 
O       1.42936184      -1.72254882      -0.67498736        8 
C       3.26638030      -2.57719634       1.03505867        6 
C      -1.68828587      -2.72154285      -1.71311856        6 
C      -1.31051791       1.16750421       0.08039965        6 
C      -0.98786594       2.38155132       1.00109759        6 
C       0.53890750       2.56248815       0.76687881        6 
C       0.83784916       1.33933127      -0.12691620        6 
O      -0.32734975       1.28491220      -0.95599555        8 
H      -1.21764974      -0.13625797       1.85123906        1 
H       1.05054259       0.32469333       1.80529905        1 
H       3.89259096      -2.35848688       0.16813162        1 
H      -2.63040309      -3.12715945      -1.34132788        1 
H      -1.55017058       3.25694469       0.67305918        1 
H      -1.25144777       2.18938105       2.04162419        1 
H       0.75146765       3.47890372       0.21230858        1 
H       1.13206371       2.57144401       1.68089266        1 
H       3.87940097      -2.71551545       1.92293800        1 
H       2.67270538      -3.47027427       0.83423496        1 
H      -0.87921893      -3.42313553      -1.50594532        1 
H      -1.74787700      -2.51678815      -2.77984532        1 
C      -2.70105018       1.16994923      -0.52363912        6 
C       2.06280438       1.40845483      -1.01238521        6 
O       3.20453801       1.32569383      -0.17641808        8 
H       2.05460830       2.35182886      -1.57654337        1 
H       2.03925061       0.57642985      -1.72687258        1 
C       4.41525433       1.21849879      -0.90087253        6 
H       5.22040680       1.14179360      -0.16989024        1 
H       4.58563348       2.10186719      -1.53179365        1 
H       4.41797321       0.32383956      -1.53863312        1 
O      -3.60987450       0.83360722       0.51149311        8 
H      -2.75241918       0.44617801      -1.34290594        1 
H      -2.92122807       2.16909602      -0.92689210        1 
C      -4.95017400       0.75031457       0.06591572        6 
H      -5.55859028       0.47242973       0.92658786        1 
H      -5.06392112      -0.01316946      -0.71586340        1 
H      -5.30203892       1.71413833      -0.32808100        1 
