43
Lattice="0.0 0.0 0.0 0.0 0.0 0.0 0.0 0.0 0.0" Properties=species:S:1:pos:R:3:Z:I:1 pbc="F F F"
C      -0.72508995      -0.05358558       0.81494466        6 
C       0.84556925      -0.01329794       0.88005984        6 
C      -1.33541708      -1.29735400       0.19528292        6 
C       1.50861710      -1.36124095       0.62254132        6 
O      -2.64410173      -1.37989885       0.52017600        8 
O      -0.77493245      -2.13071942      -0.47188435        8 
O       2.01713306      -1.51694990      -0.60733422        8 
O       1.57064314      -2.20592710       1.48460942        8 
C       2.49751234      -2.83516336      -0.92077077        6 
C      -3.35399805      -2.51397930      -0.00830751        6 
C      -1.00808564       1.22894188      -0.06070178        6 
C      -0.71711019       2.47224507       0.81493256        6 
C       0.83357666       2.48466021       0.82314553        6 
C       1.16221495       1.22450851      -0.01924886        6 
O       0.09124001       1.21358542      -0.97958111        8 
H      -1.17447374       0.06446963       1.79897136        1 
H       1.13769868       0.20310285       1.90719994        1 
H       1.67298142      -3.54668142      -0.86250525        1 
H      -2.91128426      -3.44355165       0.35240081        1 
H      -1.12280053       3.36313723       0.33305934        1 
H      -1.16851607       2.39375003       1.80322084        1 
H       1.22487688       3.37076006       0.32026735        1 
H       1.27084615       2.44266548       1.82044379        1 
H       2.87602182      -2.77099339      -1.93909748        1 
H       3.28944952      -3.13229036      -0.23174139        1 
H      -3.33062506      -2.50670096      -1.09964205        1 
H      -4.37452624      -2.40986797       0.35370178        1 
C      -2.30459437       1.29640847      -0.84273846        6 
C       2.49655170       1.27429576      -0.73545056        6 
O       3.50450498       1.07916936       0.24390684        8 
H       2.61201100       2.25492656      -1.21960099        1 
H       2.53828643       0.49659178      -1.50112652        1 
C       4.78864153       0.88843338      -0.31652946        6 
H       5.48362893       0.74585261       0.51133732        1 
H       5.10602843       1.76143627      -0.90407108        1 
H       4.80947947       0.00023876      -0.96242712        1 
O      -3.35867605       1.53377537       0.06941666        8 
H      -2.47235645       0.36933613      -1.40684034        1 
H      -2.22539489       2.11680238      -1.57080004        1 
C      -4.63697160       1.37928567      -0.51223938        6 
H      -5.37189697       1.58285057       0.26674910        1 
H      -4.78184517       0.35565921      -0.88454855        1 
H      -4.79122735       2.08274432      -1.34288941        1 
