43
Lattice="0.0 0.0 0.0 0.0 0.0 0.0 0.0 0.0 0.0" Properties=species:S:1:pos:R:3:Z:I:1 pbc="F F F"
C      -0.49989936      -0.03444563       0.77662832        6 
C       0.99459378      -0.44585595       0.61222970        6 
C      -1.53111311      -1.11867614       1.03078846        6 
C       1.28866547      -1.52996393      -0.44291553        6 
O      -2.77738588      -0.71124549       0.71285807        8 
O      -1.29388637      -2.18943087       1.52872527        8 
O       0.26602634      -2.37961223      -0.62006984        8 
O       2.28481578      -1.58244163      -1.12408084        8 
C       0.44100145      -3.39112779      -1.62659870        6 
C      -3.84154071      -1.62287047       1.03792850        6 
C      -0.64330225       1.18737867      -0.21917457        6 
C      -0.32286638       2.42612694       0.63813379        6 
C       1.13936455       2.09033529       1.04183286        6 
C       1.50680101       0.93310008       0.05466560        6 
O       0.55599835       1.10153574      -1.01816264        8 
H      -0.53281102       0.42225973       1.77489605        1 
H       1.45863321      -0.73356398       1.55536877        1 
H       1.31462759      -4.00555856      -1.40465775        1 
H      -3.86214928      -1.82107748       2.11063764        1 
H      -0.37201803       3.32306036       0.01847308        1 
H      -1.00723015       2.54822299       1.47763960        1 
H       1.80859040       2.93711127       0.89314642        1 
H       1.24199219       1.77928932       2.08298172        1 
H      -0.46653685      -3.98982234      -1.58918535        1 
H       0.56415790      -2.93336240      -2.60963185        1 
H      -3.71693806      -2.56559513       0.50266001        1 
H      -4.75489450      -1.12122394       0.72501431        1 
C      -1.82900807       1.29937071      -1.15743768        6 
C       2.92512764       1.05649986      -0.47089030        6 
O       3.79238238       0.74194242       0.60716918        8 
H       3.08097798       2.09485569      -0.80044006        1 
H       3.09159523       0.38852675      -1.31479262        1 
C       5.14568614       0.63431356       0.20783471        6 
H       5.72472804       0.38513619       1.09766824        1 
H       5.51886237       1.58163821      -0.20731906        1 
H       5.27441190      -0.15762809      -0.54108107        1 
O      -2.89539417       1.93769747      -0.47898095        8 
H      -2.13332337       0.31065964      -1.52056951        1 
H      -1.51128584       1.90091000      -2.02079175        1 
C      -4.11372266       1.86831890      -1.18787717        6 
H      -4.86392786       2.38823427      -0.59119845        1 
H      -4.42915594       0.82570336      -1.33521804        1 
H      -4.03963954       2.35487301      -2.17130852        1 
