43
Lattice="0.0 0.0 0.0 0.0 0.0 0.0 0.0 0.0 0.0" Properties=species:S:1:pos:R:3:Z:I:1 pbc="F F F"
C      -0.87149963       0.01373847       0.89166570        6 
C       0.70294036       0.08107730       0.88713866        6 
C      -1.48026832      -1.30848245       0.46622507        6 
C       1.33963830      -1.29219142       0.71068690        6 
O      -0.99347423      -1.73190138      -0.72232673        8 
O      -2.32328402      -1.90309061       1.08773755        8 
O       2.30766582      -1.36398137      -0.21454394        8 
O       0.99897392      -2.23981768       1.37914921        8 
C       2.92184645      -2.65578689      -0.38024001        6 
C      -1.46209982      -3.01433770      -1.17109371        6 
C      -1.21607743       1.19102352      -0.08841435        6 
C      -0.96704301       2.51563624       0.66845792        6 
C       0.58301757       2.57109948       0.67748009        6 
C       0.95390862       1.27386954      -0.09368341        6 
O      -0.13222319       1.15335537      -1.02834820        8 
H      -1.27635762       0.20678319       1.88124929        1 
H       1.03657524       0.37030538       1.88655055        1 
H       2.17249218      -3.39841245      -0.65726931        1 
H      -2.54559713      -3.00462331      -1.30163645        1 
H      -1.39437183       3.34687937       0.10476088        1 
H      -1.41809343       2.51648968       1.65994548        1 
H       0.95315983       3.43818348       0.12831886        1 
H       1.01742903       2.60126088       1.67651938        1 
H       3.65014906      -2.52810834      -1.17827923        1 
H       3.41248089      -2.96672098       0.54295318        1 
H      -1.19452968      -3.78560138      -0.44693903        1 
H      -0.96494866      -3.18771217      -2.12338144        1 
C      -2.53636740       1.10427538      -0.82545257        6 
C       2.26105866       1.36901264      -0.85190580        6 
O       3.30242106       1.45409359       0.10723134        8 
H       2.23781996       2.27359448      -1.47714630        1 
H       2.39351440       0.50029072      -1.50003475        1 
C       4.58848831       1.34471639      -0.46768611        6 
H       5.31312526       1.42624479       0.34295530        1 
H       4.77426091       2.14705756      -1.19580439        1 
H       4.71563956       0.37570778      -0.96984042        1 
O      -3.56752366       1.21622601       0.13689256        8 
H      -2.60761381       0.15551237      -1.37236814        1 
H      -2.59028191       1.92100052      -1.56044808        1 
C      -4.85248235       0.94663003      -0.39056375        6 
H      -5.56463921       1.06181978       0.42627717        1 
H      -4.91427800      -0.07952093      -0.77754523        1 
H      -5.11106551       1.64789715      -1.19657931        1 
