43
Lattice="0.0 0.0 0.0 0.0 0.0 0.0 0.0 0.0 0.0" Properties=species:S:1:pos:R:3:Z:I:1 pbc="F F F"
C      -0.69318350      -0.12428008      -0.68881474        6 
C       0.83950841       0.24957801      -0.62754752        6 
C      -1.70091253       0.96536466      -0.36043776        6 
C       1.26465238       1.46599768       0.19615299        6 
O      -1.84783639       1.76276357      -1.44431874        8 
O      -2.35580668       1.09372948       0.64312651        8 
O       0.26523045       2.33818551       0.40072909        8 
O       2.38804397       1.66518750       0.59163957        8 
C       0.57392778       3.50907244       1.17745929        6 
C      -2.74165164       2.87434599      -1.28882364        6 
C      -0.73401255      -1.45491355       0.14679881        6 
C      -0.34626708      -2.58028750      -0.83371884        6 
C       1.13271051      -2.21689918      -1.11393503        6 
C       1.40037415      -1.09995045      -0.06071361        6 
O       0.44097388      -1.37364298       0.97566487        8 
H      -0.91348220      -0.36810578      -1.72819904        1 
H       1.23236263       0.43510450      -1.62925831        1 
H       1.29371645       4.13552389       0.64857526        1 
H      -2.39545373       3.52931679      -0.48716857        1 
H      -0.43179249      -3.54352526      -0.32695830        1 
H      -0.98053996      -2.60142218      -1.71935674        1 
H       1.80133657      -3.06106018      -0.94439556        1 
H       1.31000156      -1.86183392      -2.12970622        1 
H      -0.37389621       4.02762497       1.30211529        1 
H       0.98439786       3.22344590       2.14627694        1 
H      -3.75080876       2.52869252      -1.05875196        1 
H      -2.72515239       3.39820302      -2.24221208        1 
C      -1.94872897      -1.74008102       1.00263870        6 
C       2.80375010      -1.14531542       0.50818197        6 
O       3.69617979      -0.90083578      -0.56500338        8 
H       2.96947367      -2.14852340       0.92911877        1 
H       2.93038510      -0.40881519       1.30368795        1 
C       5.01269005      -0.60835102      -0.13521492        6 
H       5.61394483      -0.44896419      -1.03088145        1 
H       5.44253537      -1.44185399       0.43878451        1 
H       5.03064641       0.29952994       0.48000374        1 
O      -3.05709908      -1.86135747       0.12292474        8 
H      -2.10772042      -0.93179982       1.71897763        1 
H      -1.78331296      -2.67969602       1.54983900        1 
C      -4.30204957      -1.80534218       0.79482543        6 
H      -5.07983972      -1.91633293       0.03849030        1 
H      -4.42656110      -0.84326020       1.30734530        1 
H      -4.39913361      -2.61883391       1.52766150        1 
