43
Lattice="0.0 0.0 0.0 0.0 0.0 0.0 0.0 0.0 0.0" Properties=species:S:1:pos:R:3:Z:I:1 pbc="F F F"
C      -0.80750934      -0.09733947      -0.73904334        6 
C       0.76765945       0.08886326      -0.76804355        6 
C      -1.55806126       1.14063982      -0.28679430        6 
C       1.18769149       1.42092332      -0.15587463        6 
O      -1.79755776       1.92905047      -1.34887199        8 
O      -1.94150712       1.38970216       0.83173160        8 
O       1.65616956       1.33589439       1.09864037        8 
O       1.03077523       2.47382929      -0.72889044        8 
C       1.94076326       2.58645132       1.75224909        6 
C      -2.39817142       3.20571154      -1.07350909        6 
C      -0.94750731      -1.40066160       0.11265439        6 
C      -0.64744315      -2.57558500      -0.84698915        6 
C       0.87899430      -2.39959978      -1.06295974        6 
C       1.20933571      -1.23609833      -0.08172523        6 
O       0.22091710      -1.39492765       0.94975956        8 
H      -1.15251935      -0.28300121      -1.75461501        1 
H       1.11437700       0.13543917      -1.79876683        1 
H       1.03383461       3.18853784       1.81911488        1 
H      -1.73458309       3.79954415      -0.44344933        1 
H      -0.87172696      -3.51780436      -0.34299157        1 
H      -1.23768010      -2.53186351      -1.76201714        1 
H       1.42982647      -3.29606876      -0.77541730        1 
H       1.15204720      -2.15957657      -2.09111014        1 
H       2.29446875       2.31797436       2.74529580        1 
H       2.70535520       3.13932526       1.20462244        1 
H      -3.36144278       3.07866008      -0.57706728        1 
H      -2.52446119       3.68035334      -2.04382564        1 
C      -2.19212701      -1.54871440       0.96121610        6 
C       2.60385458      -1.29179496       0.51450458        6 
O       3.50232723      -0.81398960      -0.47589770        8 
H       2.84461875      -2.32945618       0.78609050        1 
H       2.65073934      -0.67284992       1.41287147        1 
C       4.83819757      -0.73796819      -0.01714668        6 
H       5.43931006      -0.34706388      -0.83838342        1 
H       5.22192816      -1.72716597       0.26946101        1 
H       4.92397341      -0.06331867       0.84593644        1 
O      -3.30531832      -1.43701007       0.08663664        8 
H      -2.21672659      -0.76775904       1.72615839        1 
H      -2.18116724      -2.53195465       1.45338588        1 
C      -4.53871268      -1.34075952       0.77439026        6 
H      -5.32108674      -1.25417504       0.01984173        1 
H      -4.56009862      -0.45544426       1.42311000        1 
H      -4.72824814      -2.23486514       1.38500297        1 
