43
Lattice="0.0 0.0 0.0 0.0 0.0 0.0 0.0 0.0 0.0" Properties=species:S:1:pos:R:3:Z:I:1 pbc="F F F"
C      -0.74642545      -0.20582151       0.66125966        6 
C       0.81927225       0.02729816       0.70297838        6 
C      -1.12175952      -1.45963039      -0.13267930        6 
C       1.67590255      -1.19120455       0.41058365        6 
O      -1.90137714      -1.24039550      -1.20264758        8 
O      -0.73567439      -2.56474765       0.16734037        8 
O       1.67990327      -1.99243168       1.49255429        8 
O       2.36478361      -1.38637843      -0.56164841        8 
C       2.34651620      -3.25653402       1.34259850        6 
C      -2.24156079      -2.40186529      -1.98366739        6 
C      -1.18159766       1.17941514       0.10236308        6 
C      -0.77755429       2.26052112       1.15665406        6 
C       0.71683249       2.49760895       0.82422368        6 
C       0.97292630       1.33246877      -0.15305590        6 
O      -0.22368953       1.36675896      -0.95475740        8 
H      -1.13024213      -0.37791400       1.66681948        1 
H       1.07517090       0.26413754       1.73596971        1 
H       3.38857433      -3.11051673       1.05527431        1 
H      -2.79776983      -3.11893504      -1.37852995        1 
H      -1.37562322       3.16237174       1.02399244        1 
H      -0.94209281       1.90820080       2.17616948        1 
H       0.86465029       3.44368903       0.29940232        1 
H       1.37877117       2.47753782       1.68954648        1 
H       2.27853080      -3.73727413       2.31602588        1 
H       1.83428709      -3.85459491       0.58744151        1 
H      -1.33781376      -2.87650581      -2.36742757        1 
H      -2.85567806      -2.02769678      -2.79998125        1 
C      -2.59208264       1.36731118      -0.42722229        6 
C       2.18977247       1.47573999      -1.04006853        6 
O       3.32486095       1.49458689      -0.18871115        8 
H       2.11049393       2.41656962      -1.60413964        1 
H       2.24244728       0.64136030      -1.74353150        1 
C       4.53710023       1.24184166      -0.87608570        6 
H       5.33831469       1.28582041      -0.13761610        1 
H       4.72450371       1.99871055      -1.65089948        1 
H       4.52235925       0.24751729      -1.33871743        1 
O      -3.48422095       0.92785242       0.58543223        8 
H      -2.74059576       0.80443788      -1.34996608        1 
H      -2.74849478       2.43490313      -0.64014670        1 
C      -4.84191411       1.04155874       0.20678899        6 
H      -5.44189015       0.67597932       1.04047494        1 
H      -5.05877905       0.43778759      -0.68542520        1 
H      -5.11433000       2.08605731      -0.00056745        1 
