43
Lattice="0.0 0.0 0.0 0.0 0.0 0.0 0.0 0.0 0.0" Properties=species:S:1:pos:R:3:Z:I:1 pbc="F F F"
C      -0.91156222       0.14715043      -0.64566877        6 
C       0.65679061       0.04380221      -0.71777194        6 
C      -1.42680104       1.31946677       0.17664299        6 
C       1.43669364       1.20183487      -0.13163080        6 
O      -1.43101771       2.43021416      -0.59918785        8 
O      -1.75797419       1.32014601       1.33227255        8 
O       2.42074122       1.57724418      -0.97554214        8 
O       1.23588816       1.73924891       0.93016226        8 
C       3.27672888       2.63550279      -0.51339036        6 
C      -1.77307283       3.65509693       0.07350002        6 
C      -1.26316196      -1.25031703      -0.05934599        6 
C      -0.92741497      -2.32160651      -1.13685948        6 
C       0.61530412      -2.44391747      -0.99748087        6 
C       0.90008455      -1.32916806       0.03132783        6 
O      -0.22122026      -1.43477540       0.91239546        8 
H      -1.31811166       0.26810599      -1.64857291        1 
H       0.97519993      -0.05289719      -1.75274813        1 
H       3.77350947       2.34684273       0.41446276        1 
H      -1.06430619       3.84824918       0.88019683        1 
H      -1.42758253      -3.26099072      -0.89739417        1 
H      -1.25385543      -2.01721598      -2.13187618        1 
H       0.90009238      -3.40838521      -0.57205405        1 
H       1.16300322      -2.30940608      -1.92974362        1 
H       4.00555138       2.78578997      -1.30671450        1 
H       2.70173620       3.54708891      -0.34200613        1 
H      -2.78191259       3.59590757       0.48490547        1 
H      -1.71552382       4.43084896      -0.68725782        1 
C      -2.61844133      -1.40960433       0.60021326        6 
C       2.16977521      -1.46806849       0.84282516        6 
O       3.26916735      -1.38729305      -0.04685048        8 
H       2.15326596      -2.43704018       1.36203039        1 
H       2.21607007      -0.67665780       1.60240158        1 
C       4.51891079      -1.41925251       0.61429103        6 
H       5.28951852      -1.32829967      -0.15140103        1 
H       4.66200263      -2.36326964       1.15860609        1 
H       4.61598979      -0.58679431       1.32511346        1 
O      -3.59394879      -1.01004559      -0.35232259        8 
H      -2.67111022      -0.78967467       1.49838273        1 
H      -2.76168962      -2.46278495       0.88211761        1 
C      -4.91089347      -1.04526933       0.16484701        6 
H      -5.57843434      -0.71031111      -0.62958264        1 
H      -5.01533556      -0.37843093       1.03105903        1 
H      -5.19495871      -2.06341552       0.46639557        1 
