43
Lattice="0.0 0.0 0.0 0.0 0.0 0.0 0.0 0.0 0.0" Properties=species:S:1:pos:R:3:Z:I:1 pbc="F F F"
C      -0.65533669      -0.14094016       0.69697694        6 
C       0.91408863      -0.07392401       0.69128761        6 
C      -1.27659408      -1.30795739      -0.05034849        6 
C       1.61875339      -1.28688292       0.09674554        6 
O      -2.58907996      -1.40806579       0.25683080        8 
O      -0.71874783      -2.08553303      -0.78295259        8 
O       1.57438528      -2.29697909       0.99762795        8 
O       2.17193535      -1.37490459      -0.96794796        8 
C       2.07399069      -3.56363127       0.53440195        6 
C      -3.30578371      -2.47755790      -0.38500210        6 
C      -1.00343367       1.25165674       0.03927775        6 
C      -0.69373884       2.35684650       1.07952767        6 
C       0.85536266       2.40418565       1.02547087        6 
C       1.16691220       1.29609829      -0.01154669        6 
O       0.05304527       1.39996985      -0.91729284        8 
H      -1.05215458      -0.17945964       1.71050308        1 
H       1.26089030      -0.02898190       1.72346800        1 
H       3.12753059      -3.48501028       0.26180031        1 
H      -2.87430927      -3.44304270      -0.11622022        1 
H      -1.13657507       3.29987816       0.75544515        1 
H      -1.10051892       2.12075171       2.06246466        1 
H       1.21125187       3.36551740       0.65067129        1 
H       1.33836577       2.21925856       1.98473197        1 
H       1.94557378      -4.25032033       1.36869057        1 
H       1.49731473      -3.89339270      -0.33106966        1 
H      -3.27451011      -2.36324809      -1.47012922        1 
H      -4.32762635      -2.40016558      -0.02008431        1 
C      -2.33329034       1.41128964      -0.66990949        6 
C       2.46669769       1.47827315      -0.76764148        6 
O       3.51955147       1.24607052       0.15751634        8 
H       2.51529680       2.50403385      -1.16075181        1 
H       2.51462169       0.77173155      -1.59769808        1 
C       4.77570541       1.07345505      -0.47238844        6 
H       5.50891354       0.89897487       0.31584933        1 
H       5.06778614       1.96913130      -1.03870780        1 
H       4.75810897       0.21102965      -1.15079110        1 
O      -3.34948923       1.50953447       0.30879338        8 
H      -2.52098831       0.56982472      -1.34846230        1 
H      -2.28588711       2.32649300      -1.27774654        1 
C      -4.64984744       1.43268632      -0.23786269        6 
H      -5.35350410       1.52523403       0.58964756        1 
H      -4.81151985       0.46968936      -0.74207944        1 
H      -4.83406259       2.24285891      -0.95775903        1 
