43
Lattice="0.0 0.0 0.0 0.0 0.0 0.0 0.0 0.0 0.0" Properties=species:S:1:pos:R:3:Z:I:1 pbc="F F F"
C      -0.74180825       0.01005611      -0.68938644        6 
C       0.82431848       0.10135425      -0.74558621        6 
C      -1.49654190       1.06793219       0.10208756        6 
C       1.54900589       1.40252555      -0.43009599        6 
O      -2.27844829       1.79418877      -0.73030611        8 
O      -1.45220527       1.25194657       1.29174044        8 
O       0.75246106       2.38253345       0.01750037        8 
O       2.72753515       1.56195319      -0.64737009        8 
C       1.37627564       3.65057855       0.28449377        6 
C      -3.07817907       2.80953250      -0.10490424        6 
C      -0.89283643      -1.39052106       0.00930149        6 
C      -0.42136122      -2.48297031      -0.98854037        6 
C       1.12220799      -2.39112953      -0.85260003        6 
C       1.26349032      -1.17029590       0.08410778        6 
O       0.16252624      -1.35586013       0.98097482        8 
H      -1.15993370      -0.00411363      -1.69226767        1 
H       1.12797215      -0.06990217      -1.78067514        1 
H       1.78425459       4.07452245      -0.63443282        1 
H      -2.44713693       3.51472411       0.43852203        1 
H      -0.79700316      -3.46017106      -0.68089455        1 
H      -0.78319057      -2.29474101      -2.00004949        1 
H       1.53202245      -3.27215935      -0.35616461        1 
H       1.65151125      -2.25931426      -1.79555735        1 
H       0.58420540       4.28005878       0.68351142        1 
H       2.17751787       3.53309322       1.01475065        1 
H      -3.78954398       2.35990705       0.59045764        1 
H      -3.60327412       3.30878906      -0.91661093        1 
C      -2.20483607      -1.67908730       0.71210879        6 
C       2.55967365      -1.10745382       0.86561358        6 
O       3.62466370      -1.30788134      -0.04368492        8 
H       2.54290197      -1.89900699       1.62900858        1 
H       2.65724267      -0.14536551       1.38226821        1 
C       4.87234465      -0.85138854       0.44361054        6 
H       5.61281586      -1.06634507      -0.32710853        1 
H       5.15821058      -1.37189354       1.36899113        1 
H       4.84736674       0.22974474       0.62602754        1 
O      -3.24502491      -1.50844301      -0.23772417        8 
H      -2.33150991      -1.00063835       1.56218933        1 
H      -2.18921688      -2.71087694       1.09144753        1 
C      -4.53302245      -1.69676854       0.31581171        6 
H      -5.25438895      -1.53247134      -0.48491161        1 
H      -4.72598866      -0.98290888       1.12838156        1 
H      -4.65667458      -2.71641220       0.70686581        1 
