43
Lattice="0.0 0.0 0.0 0.0 0.0 0.0 0.0 0.0 0.0" Properties=species:S:1:pos:R:3:Z:I:1 pbc="F F F"
C      -0.92511141       0.29504625      -0.79878535        6 
C       0.60660078       0.04158138      -0.83428174        6 
C      -1.45943688       1.49075628      -0.01912196        6 
C       1.53626878       1.23947215      -0.75306717        6 
O      -0.87362343       1.66198038       1.17202945        8 
O      -2.42207184       2.12604064      -0.38660926        8 
O       2.73866693       0.89803416      -1.26851608        8 
O       1.29866750       2.34260545      -0.32827274        8 
C       3.75228607       1.91637521      -1.24080062        6 
C      -1.32520775       2.78587735       1.94272915        6 
C      -1.36219817      -1.02733183      -0.07233559        6 
C      -0.95756985      -2.25405762      -0.94566856        6 
C       0.54381843      -2.43523311      -0.57639858        6 
C       0.78416821      -1.13610236       0.21628389        6 
O      -0.41445578      -1.07280314       1.00308295        8 
H      -1.35628031       0.36657005      -1.79490730        1 
H       0.83969575      -0.38518168      -1.81093991        1 
H       3.96298341       2.21992363      -0.21363720        1 
H      -2.39641584       2.71555457       2.13903773        1 
H      -1.55403111      -3.12455044      -0.67149665        1 
H      -1.12177521      -2.06536458      -2.00722237        1 
H       0.69244448      -3.29439222       0.08041466        1 
H       1.20775385      -2.53775571      -1.43384439        1 
H       4.63117738       1.46157745      -1.69239743        1 
H       3.43376561       2.78999948      -1.81171111        1 
H      -1.11465330       3.71379839       1.40844307        1 
H      -0.76045815       2.74511700       2.87149134        1 
C      -2.77556080      -1.07361502       0.46846945        6 
C       1.97715221      -1.10378299       1.14881679        6 
O       3.11208160      -1.58658098       0.45674260        8 
H       1.75105962      -1.73854623       2.01793756        1 
H       2.14424266      -0.08158408       1.51835557        1 
C       4.31064352      -1.42962685       1.18767456        6 
H       5.11719630      -1.82868798       0.57226613        1 
H       4.27917017      -1.97981246       2.13891080        1 
H       4.51236240      -0.37031205       1.40149187        1 
O      -3.64842778      -1.11787841      -0.64379349        8 
H      -2.98264089      -0.19629482       1.09447990        1 
H      -2.89081261      -1.96943769       1.09649078        1 
C      -5.00714412      -0.92974728      -0.29384720        6 
H      -5.58492168      -0.98633472      -1.21638626        1 
H      -5.16356979       0.05351422       0.16840039        1 
H      -5.35587784      -1.71105539       0.39653936        1 
