43
Lattice="0.0 0.0 0.0 0.0 0.0 0.0 0.0 0.0 0.0" Properties=species:S:1:pos:R:3:Z:I:1 pbc="F F F"
C      -0.70393314      -0.21726575       0.64583147        6 
C       0.85343144       0.04580176       0.67321936        6 
C      -1.08715236      -1.47485053      -0.13723261        6 
C       1.73392051      -1.12877208       0.28011651        6 
O      -2.24615108      -1.37499932      -0.80743872        8 
O      -0.45685226      -2.50412029      -0.09397085        8 
O       1.92833050      -1.91457704       1.35885202        8 
O       2.27325537      -1.31226250      -0.78320477        8 
C       2.61535069      -3.15272479       1.11444605        6 
C      -2.68787380      -2.56597941      -1.48753089        6 
C      -1.18068387       1.17028408       0.11034492        6 
C      -0.80420570       2.24127102       1.18329570        6 
C       0.68601399       2.51329155       0.86153145        6 
C       0.96853960       1.37956598      -0.14390756        6 
O      -0.23011673       1.39885800      -0.94401158        8 
H      -1.08078014      -0.39687897       1.65499021        1 
H       1.13243074       0.24634970       1.70700839        1 
H       3.61324497      -2.96911902       0.71317107        1 
H      -2.87953802      -3.36400202      -0.76888617        1 
H      -1.41973634       3.13272502       1.06087986        1 
H      -0.96807334       1.87052047       2.19614830        1 
H       0.81757691       3.47592660       0.36320124        1 
H       1.34598653       2.48206146       1.72804492        1 
H       2.67678737      -3.64688357       2.08180984        1 
H       2.04113018      -3.75670714       0.41024305        1 
H      -1.93553667      -2.89752172      -2.20387593        1 
H      -3.60574127      -2.28052455      -1.99707863        1 
C      -2.58749559       1.35081611      -0.42654094        6 
C       2.17988953       1.57434911      -1.02887494        6 
O       3.32140378       1.53905709      -0.18543437        8 
H       2.10123143       2.54701477      -1.53595008        1 
H       2.22385094       0.78218905      -1.77977481        1 
C       4.52782316       1.32471640      -0.89614172        6 
H       5.33508614       1.32425369      -0.16297976        1 
H       4.71030757       2.12502836      -1.62705691        1 
H       4.50701353       0.35933393      -1.41656466        1 
O      -3.48709973       1.01961227       0.61800555        8 
H      -2.75506282       0.72470483      -1.30443613        1 
H      -2.71000665       2.40368140      -0.72048356        1 
C      -4.83722442       1.01841780       0.20050191        6 
H      -5.44446030       0.76459722       1.06982421        1 
H      -5.00748429       0.27258905      -0.58816701        1 
H      -5.14402153       2.00512618      -0.17469081        1 
