43
Lattice="0.0 0.0 0.0 0.0 0.0 0.0 0.0 0.0 0.0" Properties=species:S:1:pos:R:3:Z:I:1 pbc="F F F"
C      -0.75663437       0.13352297       0.90195455        6 
C       0.81855175       0.06022669       0.89890394        6 
C      -1.50278776      -1.15784792       0.59742483        6 
C       1.53657094      -1.24811516       0.62070451        6 
O      -1.74491386      -1.36602715      -0.70781239        8 
O      -1.90211343      -1.89380117       1.46889292        8 
O       0.86288633      -2.08516259      -0.18601100        8 
O       2.64755144      -1.48483848       1.03239681        8 
C       1.51248130      -3.32889683      -0.50336378        6 
C      -2.44392137      -2.57717914      -1.02787015        6 
C      -0.98673957       1.33609249      -0.07037034        6 
C      -0.53611349       2.62526456       0.67149701        6 
C       1.00797042       2.54453659       0.54620975        6 
C       1.17378470       1.18140104      -0.16158718        6 
O       0.05104909       1.15186151      -1.04850377        8 
H      -1.09557457       0.38766275       1.90411514        1 
H       1.20228305       0.36429746       1.87104396        1 
H       1.66757445      -3.91775375       0.40179933        1 
H      -3.43391730      -2.58449081      -0.56827416        1 
H      -0.93255006       3.50384318       0.16034343        1 
H      -0.89116063       2.65151438       1.70196947        1 
H       1.39870316       3.33665631      -0.09508537        1 
H       1.54141443       2.58792485       1.49460870        1 
H       0.83615595      -3.84155314      -1.18380661        1 
H       2.47474864      -3.14589711      -0.98359571        1 
H      -1.88322624      -3.44456859      -0.67517998        1 
H      -2.52422381      -2.58815992      -2.11312990        1 
C      -2.33122141       1.44381187      -0.76640536        6 
C       2.45620604       1.01623204      -0.95057041        6 
O       3.53367761       1.29750687      -0.07982237        8 
H       2.44117414       1.71600095      -1.79851821        1 
H       2.53006792      -0.00002241      -1.35924707        1 
C       4.77456324       0.78820931      -0.53176584        6 
H       5.52451701       1.07972639       0.20353021        1 
H       5.05005846       1.20663486      -1.51028673        1 
H       4.74706723      -0.30663850      -0.59885451        1 
O      -3.33424412       1.29339962       0.22477532        8 
H      -2.41690212       0.66754758      -1.53108827        1 
H      -2.41112259       2.42646548      -1.25299641        1 
C      -4.64382170       1.29093517      -0.30924233        6 
H      -5.33145884       1.15046818       0.52472347        1 
H      -4.77743816       0.47162000      -1.02919523        1 
H      -4.87507668       2.24128894      -0.81040929        1 
