43
Lattice="0.0 0.0 0.0 0.0 0.0 0.0 0.0 0.0 0.0" Properties=species:S:1:pos:R:3:Z:I:1 pbc="F F F"
C      -0.84538182       0.15300606      -0.68974368        6 
C       0.71817117      -0.01944226      -0.68069973        6 
C      -1.44988603       1.47689680      -0.24190150        6 
C       1.51762998       1.01627800       0.09128633        6 
O      -0.55430977       2.48020871      -0.26260455        8 
O      -2.62780854       1.66005106      -0.04992441        8 
O       2.31953321       1.71155872      -0.74275002        8 
O       1.49588621       1.18774279       1.28552473        8 
C       3.14227996       2.71096125      -0.12260764        6 
C      -1.05011034       3.79037904       0.06342987        6 
C      -1.32304388      -1.15874390       0.03308095        6 
C      -1.17802372      -2.32030455      -0.98119220        6 
C       0.36332348      -2.48745328      -1.04259099        6 
C       0.83044906      -1.43460437      -0.00619564        6 
O      -0.24506002      -1.41606823       0.94387219        8 
H      -1.18230624       0.10332256      -1.72942612        1 
H       1.10837571      -0.03931661      -1.69459561        1 
H       3.84723000       2.24899922       0.57109306        1 
H      -1.42256458       3.80684043       1.08853456        1 
H      -1.66200832      -3.21146339      -0.57885887        1 
H      -1.64279573      -2.09578786      -1.94056621        1 
H       0.67390941      -3.48485814      -0.72679246        1 
H       0.78464806      -2.30599237      -2.03168160        1 
H       3.67342972       3.19870946      -0.93733536        1 
H       2.52646432       3.42868233       0.42210014        1 
H      -1.85168555       4.07547172      -0.61914024        1 
H      -0.19627478       4.45558267      -0.04326638        1 
C      -2.63960831      -1.15236929       0.78184269        6 
C       2.12347581      -1.75576022       0.71651036        6 
O       3.18572045      -1.56791415      -0.20543930        8 
H       2.09181376      -2.79701284       1.06770440        1 
H       2.23604580      -1.09967276       1.58583515        1 
C       4.46177786      -1.73788023       0.38065611        6 
H       5.20057621      -1.56371176      -0.40193499        1 
H       4.59036812      -2.75534278       0.77564369        1 
H       4.62316442      -1.02038323       1.19678935        1 
O      -3.67804888      -1.19920778      -0.18070513        8 
H      -2.72967585      -0.26507232       1.41483628        1 
H      -2.66919553      -2.04301674       1.42676909        1 
C      -4.93492504      -0.80755986       0.33946594        6 
H      -5.65893679      -0.90138754      -0.47051544        1 
H      -4.90670066       0.23381260       0.68130257        1 
H      -5.24459585      -1.45602396       1.17168911        1 
