43
Lattice="0.0 0.0 0.0 0.0 0.0 0.0 0.0 0.0 0.0" Properties=species:S:1:pos:R:3:Z:I:1 pbc="F F F"
C      -0.75755575       0.21549792       0.93814016        6 
C       0.82226704       0.10494857       0.89023328        6 
C      -1.47873715      -1.11482406       0.85525804        6 
C       1.29721926      -1.29190942       0.51608266        6 
O      -1.57515567      -1.58027597      -0.41037039        8 
O      -1.84514354      -1.73757687       1.81840788        8 
O       1.61974654      -1.44349841      -0.78060865        8 
O       1.32728536      -2.19918848       1.31208014        8 
C       1.98474925      -2.77360221      -1.18661284        6 
C      -2.16903686      -2.88232963      -0.55428102        6 
C      -1.02128983       1.31386167      -0.15027133        6 
C      -0.73969497       2.67040750       0.53402573        6 
C       0.80263384       2.60366694       0.69174429        6 
C       1.14786699       1.28876836      -0.06689954        6 
O       0.09722661       1.19536153      -1.04364678        8 
H      -1.04753235       0.59847731       1.91446669        1 
H       1.22936525       0.27605032       1.88451997        1 
H       1.14869103      -3.45854533      -1.03598311        1 
H      -3.20079659      -2.87303489      -0.19832369        1 
H      -1.03581745       3.48245035      -0.13307426        1 
H      -1.27779280       2.78891918       1.47482562        1 
H       1.29392310       3.45137774       0.21188796        1 
H       1.13225083       2.57403433       1.73092686        1 
H       2.22703666      -2.69606983      -2.24445511        1 
H       2.84435623      -3.12894205      -0.61671344        1 
H      -1.60258443      -3.62256672       0.01266587        1 
H      -2.13425579      -3.10057855      -1.61981983        1 
C      -2.31270535       1.21960758      -0.93637180        6 
C       2.50176474       1.28617558      -0.75242376        6 
O       3.47643122       1.01644044       0.24287292        8 
H       2.68214931       2.26797228      -1.21330584        1 
H       2.52038137       0.52374655      -1.53542958        1 
C       4.78446116       0.89636061      -0.28179333        6 
H       5.45033411       0.69119326       0.55658119        1 
H       5.10550143       1.82330567      -0.77705195        1 
H       4.84856825       0.07046597      -1.00368727        1 
O      -3.36888071       1.09228755       0.00151097        8 
H      -2.27535586       0.35191818      -1.60241447        1 
H      -2.43922707       2.12657578      -1.54487421        1 
C      -4.63363606       0.91802582      -0.60764849        6 
H      -5.36450126       0.81178411       0.19397882        1 
H      -4.65272474       0.01633880      -1.23539202        1 
H      -4.90267772       1.78427540      -1.22797198        1 
