43
Lattice="0.0 0.0 0.0 0.0 0.0 0.0 0.0 0.0 0.0" Properties=species:S:1:pos:R:3:Z:I:1 pbc="F F F"
C      -0.72787653       0.09823095      -0.71128959        6 
C       0.83454322       0.22460374      -0.62731277        6 
C      -1.57685276       1.24696696      -0.20345150        6 
C       1.40654793       1.30062646       0.28324384        6 
O      -2.47318071       1.60255185      -1.15653570        8 
O      -1.49383365       1.80813238       0.85898069        8 
O       2.11789290       2.18986787      -0.45678953        8 
O       1.26026838       1.40425395       1.47135200        8 
C       2.70746072       3.27609017       0.27774460        6 
C      -3.39478035       2.64192031      -0.79255583        6 
C      -0.97387668      -1.27210351       0.04781150        6 
C      -0.71592631      -2.38821269      -0.98542068        6 
C       0.82096189      -2.24905532      -1.17767636        6 
C       1.18345209      -1.20399311      -0.08338218        6 
O       0.16511965      -1.39591802       0.90342182        8 
H      -1.00484934      -0.03084801      -1.75488310        1 
H       1.25653719       0.37810285      -1.61747217        1 
H       3.41807520       2.89822902       1.01512700        1 
H      -2.86089785       3.55269414      -0.51659577        1 
H      -0.97459721      -3.35359034      -0.54533407        1 
H      -1.29458882      -2.26352860      -1.90032367        1 
H       1.34000875      -3.18950430      -0.98700409        1 
H       1.10526830      -1.90969693      -2.17429760        1 
H       3.21701212       3.88661206      -0.46485648        1 
H       1.93590679       3.85298036       0.79018761        1 
H      -4.01536449       2.32389575       0.04751386        1 
H      -4.00829405       2.80870145      -1.67548210        1 
C      -2.22457798      -1.38785155       0.89095975        6 
C       2.54424554      -1.38105806       0.55752692        6 
O       3.52036166      -1.07216698      -0.42347038        8 
H       2.64714191      -2.42118636       0.89884138        1 
H       2.63660630      -0.72259235       1.42901226        1 
C       4.84426754      -1.17521925       0.06438202        6 
H       5.51136323      -0.91262724      -0.75684608        1 
H       5.06942930      -2.19789209       0.39799027        1 
H       5.01606718      -0.48637270       0.90284137        1 
O      -3.34453213      -1.23279160       0.03622113        8 
H      -2.21507361      -0.61665293       1.67148823        1 
H      -2.23665689      -2.37262198       1.37947204        1 
C      -4.57486359      -1.22249713       0.73443477        6 
H      -5.36162097      -1.07023838      -0.00479769        1 
H      -4.60833954      -0.40875543       1.47197298        1 
H      -4.74984036      -2.17487376       1.25430667        1 
