43
Lattice="0.0 0.0 0.0 0.0 0.0 0.0 0.0 0.0 0.0" Properties=species:S:1:pos:R:3:Z:I:1 pbc="F F F"
C      -0.84625550       0.22310072      -0.66017698        6 
C       0.70410224       0.15409906      -0.75292511        6 
C      -1.37602864       1.28054817       0.29865308        6 
C       1.41435893       1.48121349      -0.54478249        6 
O      -2.43160726       1.91952481      -0.25233466        8 
O      -0.97311628       1.49921052       1.41236337        8 
O       2.75260770       1.32990736      -0.52934102        8 
O       0.87213729       2.55684092      -0.47725491        8 
C       3.52203735       2.54096617      -0.41595856        6 
C      -3.03249008       2.94245031       0.55961410        6 
C      -1.12862801      -1.19446784      -0.05640452        6 
C      -0.69932921      -2.28056260      -1.08287970        6 
C       0.83790266      -2.33674605      -0.86229388        6 
C       1.03686219      -1.13958403       0.09398917        6 
O      -0.11015616      -1.27518668       0.94883868        8 
H      -1.32094218       0.35756545      -1.62900648        1 
H       0.96538936      -0.07788913      -1.79056747        1 
H       3.28340833       3.05940877       0.51395337        1 
H      -2.29456896       3.70438445       0.81449838        1 
H      -1.17835474      -3.23126726      -0.84492145        1 
H      -0.98663590      -2.01331574      -2.10025579        1 
H       1.13370790      -3.25570700      -0.35342419        1 
H       1.42607072      -2.25177398      -1.77572798        1 
H       4.56216469       2.22230959      -0.42353802        1 
H       3.31756678       3.20331490      -1.25852027        1 
H      -3.43824033       2.51465059       1.47860162        1 
H      -3.82936875       3.36511066      -0.04876436        1 
C      -2.48931108      -1.41616171       0.57123819        6 
C       2.28718395      -1.18187094       0.94697551        6 
O       3.39167177      -1.46674116       0.10796335        8 
H       2.15918367      -1.97376245       1.69869033        1 
H       2.42769019      -0.23209435       1.47613705        1 
C       4.63412127      -1.26605930       0.74739972        6 
H       5.41231384      -1.51082999       0.02376629        1 
H       4.74752257      -1.91574860       1.62730648        1 
H       4.75260331      -0.22068327       1.06456825        1 
O      -3.44700703      -1.40905563      -0.47228472        8 
H      -2.70785932      -0.63562460       1.31105553        1 
H      -2.48527440      -2.38366742       1.09420375        1 
C      -4.77820577      -1.48359842      -0.00076293        6 
H      -5.42988374      -1.46655730      -0.87448922        1 
H      -5.02028267      -0.62831346       0.64525281        1 
H      -4.95453246      -2.41176870       0.56121621        1 
