43
Lattice="0.0 0.0 0.0 0.0 0.0 0.0 0.0 0.0 0.0" Properties=species:S:1:pos:R:3:Z:I:1 pbc="F F F"
C      -0.75346252      -0.08280465      -0.73730976        6 
C       0.80444822       0.15351032      -0.73782159        6 
C      -1.61692910       1.09670276      -0.31667244        6 
C       1.38027212       1.37987159      -0.05038472        6 
O      -1.63783667       1.99304355      -1.33434961        8 
O      -2.20519894       1.26899706       0.71880635        8 
O       0.55117349       1.92754034       0.84790419        8 
O       2.50711952       1.77539007      -0.24021811        8 
C       1.04513567       3.05325697       1.59267208        6 
C      -2.36353031       3.20869470      -1.08673570        6 
C      -0.87415952      -1.39568317       0.10872179        6 
C      -0.49473854      -2.56607160      -0.82909830        6 
C       1.03385387      -2.35594175      -0.97636425        6 
C       1.27974381      -1.16429360      -0.01402295        6 
O       0.26614377      -1.33091351       0.98529350        8 
H      -1.05796937      -0.28746710      -1.76396726        1 
H       1.19967110       0.18314677      -1.75146778        1 
H       1.33503559       3.86021736       0.91799834        1 
H      -1.93302672       3.74068772      -0.23645904        1 
H      -0.72062734      -3.51279656      -0.33457951        1 
H      -1.04332357      -2.53916274      -1.77035805        1 
H       1.59615879      -3.22622600      -0.63534934        1 
H       1.35875735      -2.13322737      -1.99231984        1 
H       0.21827829       3.35647801       2.23082190        1 
H       1.90727986       2.76051527       2.19383005        1 
H      -3.41329014       2.99375298      -0.88096397        1 
H      -2.26494991       3.79731631      -1.99637683        1 
C      -2.13433084      -1.61602340       0.91847114        6 
C       2.65122095      -1.16152638       0.62917350        6 
O       3.60583812      -1.18337727      -0.41472878        8 
H       2.74117193      -2.05564189       1.26326370        1 
H       2.78879837      -0.28181668       1.26849155        1 
C       4.90189513      -0.79281316       0.00087296        6 
H       5.54963753      -0.85908724      -0.87343596        1 
H       5.29067382      -1.45806986       0.78507368        1 
H       4.89833693       0.24045421       0.36883189        1 
O      -3.21826742      -1.62524543       0.00041311        8 
H      -2.25368223      -0.81953568       1.65559890        1 
H      -2.05941332      -2.58204942       1.43878431        1 
C      -4.48039476      -1.58317247       0.63948987        6 
H      -5.23835039      -1.59861255      -0.14441864        1 
H      -4.58992686      -0.66660947       1.23324579        1 
H      -4.62688567      -2.45352822       1.29474240        1 
