43
Lattice="0.0 0.0 0.0 0.0 0.0 0.0 0.0 0.0 0.0" Properties=species:S:1:pos:R:3:Z:I:1 pbc="F F F"
C      -0.85047773       0.12327867      -0.68069043        6 
C       0.71446703       0.15375109      -0.73994944        6 
C      -1.48463522       1.22952730       0.14932791        6 
C       1.32231573       1.50580551      -0.39378984        6 
O      -2.34666960       1.94428590      -0.60034597        8 
O      -1.30189392       1.42191449       1.32627692        8 
O       2.64408501       1.43739524      -0.15547549        8 
O       0.71484489       2.54885951      -0.41966129        8 
C       3.30465559       2.69632957       0.07760260        6 
C      -2.99087234       3.04175412       0.06653138        6 
C      -1.07297811      -1.27380359      -0.00714757        6 
C      -0.68601214      -2.37092901      -1.03321802        6 
C       0.86385459      -2.33772532      -0.95606944        6 
C       1.09563230      -1.16641330       0.03213396        6 
O      -0.00009524      -1.32695464       0.94306193        8 
H      -1.28930086       0.15935979      -1.67431715        1 
H       1.02181692       0.02363115      -1.78254969        1 
H       2.88759057       3.18670783       0.95820516        1 
H      -2.24771929       3.77664173       0.38029236        1 
H      -1.08307436      -3.33621557      -0.71433345        1 
H      -1.08200942      -2.16067626      -2.02695359        1 
H       1.26165415      -3.25715970      -0.52362406        1 
H       1.35683119      -2.17923888      -1.91488284        1 
H       4.35173866       2.44669542       0.23421082        1 
H       3.19040744       3.35102746      -0.78731036        1 
H      -3.54315684       2.69097920       0.93991359        1 
H      -3.66878671       3.47064793      -0.66855455        1 
C      -2.38828875      -1.49376291       0.71178797        6 
C       2.39111449      -1.25301126       0.81096232        6 
O       3.45556476      -1.38736193      -0.11374296        8 
H       2.33244628      -2.13702592       1.46256614        1 
H       2.52833974      -0.37044036       1.44345769        1 
C       4.72449174      -1.23353539       0.48587595        6 
H       5.47033472      -1.35036200      -0.30094085        1 
H       4.90055190      -1.99312517       1.26115945        1 
H       4.83060216      -0.23806939       0.93862006        1 
O      -3.42695933      -1.33515626      -0.24021067        8 
H      -2.49128021      -0.77772935       1.53487960        1 
H      -2.39783262      -2.50851771       1.13554286        1 
C      -4.71689066      -1.46483829       0.32465902        6 
H      -5.43700118      -1.31485992      -0.47996376        1 
H      -4.88798716      -0.71201478       1.10636967        1 
H      -4.86645150      -2.46339206       0.75922505        1 
