43
Lattice="0.0 0.0 0.0 0.0 0.0 0.0 0.0 0.0 0.0" Properties=species:S:1:pos:R:3:Z:I:1 pbc="F F F"
C      -0.83402607       0.25890140      -0.68608605        6 
C       0.68814710      -0.04997662      -0.76637634        6 
C      -1.23893213       1.36847352       0.27528252        6 
C       1.63256314       1.13343364      -0.67475122        6 
O      -0.24459160       1.74799067       1.10069134        8 
O      -2.36949325       1.78292679       0.37923200        8 
O       1.07334654       2.20730089      -1.28265143        8 
O       2.78330172       1.11176461      -0.31697512        8 
C       1.89585737       3.38128764      -1.37754861        6 
C      -0.58133933       2.72127913       2.10284614        6 
C      -1.31558457      -1.10895398      -0.07408989        6 
C      -0.96549111      -2.25804027      -1.06620098        6 
C       0.52767322      -2.52526340      -0.73737661        6 
C       0.83766822      -1.31111955       0.16158540        6 
O      -0.35107813      -1.27056768       0.97961111        8 
H      -1.29922395       0.46129487      -1.64795897        1 
H       0.88965436      -0.38626037      -1.78996449        1 
H       2.82062909       3.16173341      -1.91324202        1 
H      -1.33759512       2.32333696       2.78111572        1 
H      -1.59218664      -3.12839880      -0.87141675        1 
H      -1.13660059      -1.95972340      -2.10116031        1 
H       0.65091214      -3.44269719      -0.15901685        1 
H       1.17816727      -2.57982758      -1.60945978        1 
H       1.29938789       4.10971748      -1.92270091        1 
H       2.13850760       3.75542163      -0.38115377        1 
H      -0.95961382       3.63245672       1.63685621        1 
H       0.34550386       2.91791646       2.63734341        1 
C      -2.72152922      -1.19087623       0.48209950        6 
C       2.05973458      -1.44048935       1.04448937        6 
O       3.14074656      -1.84631354       0.22409518        8 
H       1.85071360      -2.19852917       1.81330458        1 
H       2.27686084      -0.49029670       1.54196569        1 
C       4.40679044      -1.59233127       0.80410884        6 
H       5.15740752      -1.96023829       0.10378529        1 
H       4.52411553      -2.12038505       1.76151914        1 
H       4.55365074      -0.51716754       0.96035680        1 
O      -3.61077635      -1.10830213      -0.61695288        8 
H      -2.91447812      -0.38674234       1.19858217        1 
H      -2.83359885      -2.15262866       1.00489435        1 
C      -4.95611598      -0.90591616      -0.22534812        6 
H      -5.55130229      -0.86071367      -1.13764254        1 
H      -5.06686121       0.03638440       0.32607929        1 
H      -5.32153803      -1.73377016       0.39914732        1 
