43
Lattice="0.0 0.0 0.0 0.0 0.0 0.0 0.0 0.0 0.0" Properties=species:S:1:pos:R:3:Z:I:1 pbc="F F F"
C      -0.86970061       0.14685077      -0.63353491        6 
C       0.69784842       0.02840315      -0.71156693        6 
C      -1.39106916       1.27016391       0.24914149        6 
C       1.49631103       1.18612297      -0.14921024        6 
O      -1.67616940       2.34976860      -0.52046141        8 
O      -1.49668481       1.26931218       1.44664680        8 
O       2.31620498       1.69200625      -1.09783046        8 
O       1.42345726       1.63528435       0.96780671        8 
C       3.16369953       2.77455994      -0.68019783        6 
C      -2.10873735       3.52292402       0.19141375        6 
C      -1.22274952      -1.26869450      -0.07922523        6 
C      -0.88097435      -2.31609708      -1.17803541        6 
C       0.65981725      -2.45149315      -1.01876870        6 
C       0.93711977      -1.34891178       0.02562516        6 
O      -0.19104653      -1.47301543       0.89497689        8 
H      -1.28486391       0.29761171      -1.62754129        1 
H       0.99570856      -0.06876160      -1.75271993        1 
H       3.83008442       2.44866523       0.12057662        1 
H      -1.34675494       3.83478103       0.90742446        1 
H      -1.39156456      -3.25760693      -0.97065847        1 
H      -1.18930563      -1.98320813      -2.16981325        1 
H       0.93011972      -3.42213614      -0.59791983        1 
H       1.21950852      -2.31251108      -1.94348109        1 
H       3.73569082       3.05263185      -1.56272273        1 
H       2.56652322       3.61699642      -0.32721161        1 
H      -3.04047396       3.32358979       0.72371799        1 
H      -2.26022864       4.28516501      -0.57000774        1 
C      -2.57969914      -1.43206232       0.57503033        6 
C       2.20160274      -1.47804668       0.84570608        6 
O       3.30199933      -1.24038599      -0.01681805        8 
H       2.25226502      -2.48745420       1.27786568        1 
H       2.18214775      -0.75013758       1.66556136        1 
C       4.54376688      -1.23460917       0.66144859        6 
H       5.31339344      -1.01977419      -0.08027041        1 
H       4.75281083      -2.20921367       1.12414243        1 
H       4.56717494      -0.46243381       1.44274324        1 
O      -3.55470937      -1.01076800      -0.36759670        8 
H      -2.62802479      -0.82882537       1.48655131        1 
H      -2.72821827      -2.48830142       0.84150739        1 
C      -4.87588923      -1.10274394       0.13117712        6 
H      -5.54281484      -0.74705669      -0.65456715        1 
H      -5.00800652      -0.48106207       1.02705377        1 
H      -5.13692563      -2.14067089       0.38135915        1 
