43
Lattice="0.0 0.0 0.0 0.0 0.0 0.0 0.0 0.0 0.0" Properties=species:S:1:pos:R:3:Z:I:1 pbc="F F F"
C      -0.79756616      -0.00464872      -0.78415319        6 
C       0.77112144       0.06541077      -0.80645890        6 
C      -1.57743639       1.26861109      -0.48684782        6 
C       1.40877498       1.29572704      -0.18319068        6 
O      -0.85651692       2.36670775      -0.78574648        8 
O      -2.74629780       1.31733919      -0.19102519        8 
O       1.04719557       1.46209143       1.10771897        8 
O       2.17303759       2.03016818      -0.75796235        8 
C       1.55658256       2.63898158       1.75265686        6 
C      -1.52967063       3.63290835      -0.67908075        6 
C      -1.05243401      -1.27692774       0.10362722        6 
C      -0.78519090      -2.51187323      -0.79148028        6 
C       0.75827539      -2.45515017      -0.94036911        6 
C       1.11455315      -1.25097480      -0.03008534        6 
O       0.09128269      -1.29159961       0.97454176        8 
H      -1.14122186      -0.23103920      -1.79873363        1 
H       1.15509458       0.03048382      -1.82270007        1 
H       1.22037950       3.53422605       1.22605785        1 
H      -1.84557562       3.80867699       0.35050149        1 
H      -1.10183852      -3.41255638      -0.26333061        1 
H      -1.32984908      -2.47037920      -1.73400893        1 
H       1.23350391      -3.36075854      -0.55968547        1 
H       1.09916035      -2.30804767      -1.96533244        1 
H       1.15401657       2.61437068       2.76314776        1 
H       2.64770309       2.62856737       1.77347798        1 
H      -2.40278594       3.65636495      -1.33254049        1 
H      -0.79526653       4.37296693      -0.98892499        1 
C      -2.32111049      -1.36331559       0.92604387        6 
C       2.48368096      -1.32699397       0.61389626        6 
O       3.43804566      -1.31501509      -0.43240605        8 
H       2.55329654      -2.25424516       1.20123492        1 
H       2.63867085      -0.48301235       1.29680234        1 
C       4.77126029      -1.21424319       0.02980025        6 
H       5.41495570      -1.20407946      -0.84968493        1 
H       5.04226164      -2.06945466       0.66487023        1 
H       4.92529408      -0.28642852       0.59753198        1 
O      -3.39051296      -1.62687927       0.03545468        8 
H      -2.49069934      -0.43716670       1.48305694        1 
H      -2.20718947      -2.18540605       1.64774942        1 
C      -4.66003978      -1.33717532       0.59019722        6 
H      -5.40367930      -1.58865085      -0.16668863        1 
H      -4.74145751      -0.27242016       0.83866248        1 
H      -4.85220418      -1.93824190       1.49087248        1 
