43
Lattice="0.0 0.0 0.0 0.0 0.0 0.0 0.0 0.0 0.0" Properties=species:S:1:pos:R:3:Z:I:1 pbc="F F F"
C      -0.82977739       0.24304218      -0.71115718        6 
C       0.69438005      -0.03854310      -0.77801702        6 
C      -1.28191117       1.35936505       0.21736024        6 
C       1.65959604       1.13296272      -0.74723289        6 
O      -0.39756548       1.62776923       1.19524731        8 
O      -2.38271242       1.85785969       0.17042134        8 
O       1.03355894       2.29834271      -1.02126170        8 
O       2.86238943       1.03268207      -0.72221903        8 
C       1.88007274       3.44413547      -1.21755721        6 
C      -0.80226038       2.60807927       2.16327855        6 
C      -1.28523841      -1.12290235      -0.07078733        6 
C      -0.91715498      -2.28764584      -1.03759505        6 
C       0.58244654      -2.52120041      -0.70511382        6 
C       0.86856366      -1.28492834       0.17137225        6 
O      -0.32076411      -1.25312866       0.98514551        8 
H      -1.29125891       0.41216183      -1.68100608        1 
H       0.89434557      -0.40353801      -1.79246615        1 
H       2.57433755       3.26898438      -2.04077878        1 
H      -1.71984920       2.29626981       2.66400626        1 
H      -1.52791751      -3.16427548      -0.82098612        1 
H      -1.09405781      -2.01690309      -2.07915380        1 
H       0.72425481      -3.42554354      -0.11087851        1 
H       1.23312074      -2.57904104      -1.57664366        1 
H       1.20480865       4.26450355      -1.45045754        1 
H       2.44738900       3.65889664      -0.31049457        1 
H      -0.96799097       3.57315504       1.68086964        1 
H       0.01923007       2.67096704       2.87365751        1 
C      -2.69010372      -1.20099556       0.48856888        6 
C       2.09510965      -1.36492952       1.05539785        6 
O       3.16653281      -1.85401340       0.27007071        8 
H       1.87787407      -2.05062028       1.88720618        1 
H       2.33021699      -0.38097182       1.47652082        1 
C       4.44124561      -1.52711595       0.79098637        6 
H       5.18045565      -1.96198124       0.11771644        1 
H       4.58512988      -1.94632904       1.79724727        1 
H       4.57972586      -0.44005033       0.82352411        1 
O      -3.58115760      -1.15303178      -0.60998791        8 
H      -2.88570993      -0.37679073       1.18333207        1 
H      -2.79797981      -2.14608637       1.04137883        1 
C      -4.92669729      -0.93983310      -0.22421297        6 
H      -5.52198220      -0.92451424      -1.13732278        1 
H      -5.03843981       0.01995420       0.29603578        1 
H      -5.29081049      -1.74758402       0.42674167        1 
