43
Lattice="0.0 0.0 0.0 0.0 0.0 0.0 0.0 0.0 0.0" Properties=species:S:1:pos:R:3:Z:I:1 pbc="F F F"
C      -0.91593862       0.11244915      -0.68445600        6 
C       0.65536437       0.10591429      -0.70121296        6 
C      -1.54683576       1.33618405      -0.03225430        6 
C       1.34119949       1.24954680       0.01991871        6 
O      -1.44667586       2.38187981      -0.88775866        8 
O      -2.07349767       1.41402695       1.04578986        8 
O       2.57186697       1.45290275      -0.49935332        8 
O       0.89860858       1.89853351       0.93447175        8 
C       3.35829171       2.47817063       0.13187599        6 
C      -1.89419683       3.64846736      -0.37304827        6 
C      -1.21961505      -1.26016691      -0.00909967        6 
C      -0.91122025      -2.36928069      -1.04955754        6 
C       0.64006202      -2.39155367      -1.04119424        6 
C       0.94987473      -1.28216569      -0.00901492        6 
O      -0.13039546      -1.39743065       0.92237154        8 
H      -1.27723336       0.11547777      -1.71250423        1 
H       1.03745668       0.09738518      -1.71962378        1 
H       3.49249332       2.26029061       1.19287462        1 
H      -1.30627807       3.92050331       0.50485873        1 
H      -1.32612519      -3.31859754      -0.70693852        1 
H      -1.34354887      -2.15021389      -2.02594268        1 
H       1.02814005      -3.34619388      -0.68196057        1 
H       1.09477366      -2.19160520      -2.01081334        1 
H       4.31479967       2.46880405      -0.38601046        1 
H       2.87430623       3.45060062       0.02695098        1 
H      -2.95004948       3.59993571      -0.10254858        1 
H      -1.73841894       4.36203330      -1.17956458        1 
C      -2.54001514      -1.42289318       0.71560553        6 
C       2.26357195      -1.43778436       0.72880413        6 
O       3.29621499      -1.55210269      -0.23180667        8 
H       2.20651858      -2.34067623       1.35361917        1 
H       2.43726367      -0.58288993       1.39628306        1 
C       4.58837663      -1.44353501       0.32969218        6 
H       5.30380953      -1.55852767      -0.48472149        1 
H       4.77015000      -2.22542078       1.08047038        1 
H       4.73401768      -0.46121995       0.80042432        1 
O      -3.56647441      -1.14848902      -0.22727687        8 
H      -2.59021544      -0.73287582       1.55974928        1 
H      -2.62103783      -2.45528209       1.08600787        1 
C      -4.84896490      -1.07208788       0.36661310        6 
H      -5.56106031      -0.85880446      -0.43126426        1 
H      -4.89020966      -0.26966310       1.11452259        1 
H      -5.12499348      -2.02135404       0.84726035        1 
