43
Lattice="0.0 0.0 0.0 0.0 0.0 0.0 0.0 0.0 0.0" Properties=species:S:1:pos:R:3:Z:I:1 pbc="F F F"
C      -0.79386683      -0.04839371      -0.76525423        6 
C       0.77019830       0.08123726      -0.79248856        6 
C      -1.54251215       1.22404095      -0.40371986        6 
C       1.34793721       1.31061641      -0.11631988        6 
O      -1.02542002       2.25557878      -1.11249458        8 
O      -2.51905935       1.33491675       0.29241803        8 
O       0.74984684       1.56868773       1.06596539        8 
O       2.26488878       1.96223148      -0.55202783        8 
C       1.22060161       2.72587971       1.77548173        6 
C      -1.65840457       3.53352929      -0.93252655        6 
C      -0.99462759      -1.33872228       0.09785873        6 
C      -0.68171550      -2.54273642      -0.82618958        6 
C       0.86053390      -2.43483272      -0.96442048        6 
C       1.16942095      -1.23306736      -0.03599030        6 
O       0.15129133      -1.33082273       0.96834767        8 
H      -1.13993927      -0.25092285      -1.78288825        1 
H       1.16799421       0.08647098      -1.80374261        1 
H       1.06755557       3.62584401       1.17673965        1 
H      -1.60720647       3.83890442       0.11401482        1 
H      -0.97199255      -3.46651297      -0.32274528        1 
H      -1.22097401      -2.49424842      -1.77175399        1 
H       1.36158071      -3.32874410      -0.58929567        1 
H       1.20570594      -2.26391874      -1.98407939        1 
H       0.63072424       2.76592850       2.68843352        1 
H       2.28256761       2.62917920       2.00667905        1 
H      -2.70387293       3.48880839      -1.24168147        1 
H      -1.10004105       4.22335593      -1.56136387        1 
C      -2.25919370      -1.48564205       0.91646160        6 
C       2.54044496      -1.25436114       0.60680969        6 
O       3.49454251      -1.25494717      -0.43745404        8 
H       2.63246779      -2.15738166       1.22779977        1 
H       2.67621298      -0.38348054       1.26193659        1 
C       4.81835353      -1.04208307       0.01504623        6 
H       5.46336508      -1.06309539      -0.86325531        1 
H       5.13604753      -1.82914677       0.71366489        1 
H       4.91535704      -0.06560119       0.50784365        1 
O      -3.33722833      -1.60032576       0.00168539        8 
H      -2.39303980      -0.62371790       1.57380833        1 
H      -2.17450545      -2.39364429       1.53158613        1 
C      -4.59956715      -1.39485437       0.60840408        6 
H      -5.35275116      -1.51248436      -0.17143254        1 
H      -4.66874557      -0.38522314       1.03114198        1 
H      -4.78925253      -2.13314355       1.40071119        1 
