43
Lattice="0.0 0.0 0.0 0.0 0.0 0.0 0.0 0.0 0.0" Properties=species:S:1:pos:R:3:Z:I:1 pbc="F F F"
C      -0.91639055       0.14859253      -0.65980407        6 
C       0.65347240       0.06489523      -0.70944166        6 
C      -1.45803360       1.34887886       0.10397449        6 
C       1.40791790       1.21431772      -0.07460873        6 
O      -1.38425306       2.44167066      -0.69362716        8 
O      -1.88034196       1.38053918       1.22906406        8 
O       2.47896502       1.54142994      -0.82787634        8 
O       1.13239907       1.77163954       0.95956878        8 
C       3.31846191       2.58710882      -0.30853030        6 
C      -1.74279159       3.68831200      -0.07129418        6 
C      -1.26415214      -1.23708985      -0.04276279        6 
C      -0.94239782      -2.32509257      -1.10561025        6 
C       0.60379337      -2.42590234      -1.00386789        6 
C       0.90118030      -1.31331186       0.02493361        6 
O      -0.20994745      -1.41118297       0.91995792        8 
H      -1.30653439       0.23349736      -1.67334834        1 
H       0.99682253      -0.00783018      -1.73837815        1 
H       3.72006537       2.30713270       0.66687627        1 
H      -1.07452875       3.89135471       0.76702023        1 
H      -1.42328265      -3.26500154      -0.83100112        1 
H      -1.29967893      -2.04701564      -2.09756075        1 
H       0.91501349      -3.38961333      -0.59607708        1 
H       1.12718210      -2.27497673      -1.94731002        1 
H       4.12068099       2.70159499      -1.03406374        1 
H       2.75473673       3.51608019      -0.20852622        1 
H      -2.77290600       3.65447797       0.28650930        1 
H      -1.63165209       4.44343029      -0.84673257        1 
C      -2.61185214      -1.38751505       0.63368871        6 
C       2.18486438      -1.46848240       0.81220217        6 
O       3.25972344      -1.51846744      -0.10847280        8 
H       2.12509952      -2.39686375       1.39839881        1 
H       2.30467982      -0.63359995       1.51531899        1 
C       4.52522941      -1.54901489       0.52115298        6 
H       5.27626096      -1.58752168      -0.26805007        1 
H       4.63329283      -2.43365774       1.16432076        1 
H       4.68956112      -0.64968262       1.13134613        1 
O      -3.59802322      -1.02260913      -0.32201329        8 
H      -2.66163712      -0.74144701       1.51262065        1 
H      -2.74414159      -2.43364558       0.94579758        1 
C      -4.90625451      -1.01309088       0.21799572        6 
H      -5.58270765      -0.70821788      -0.58107563        1 
H      -4.98587534      -0.30245104       1.05122806        1 
H      -5.19929956      -2.01091255       0.57403785        1 
