43
Lattice="0.0 0.0 0.0 0.0 0.0 0.0 0.0 0.0 0.0" Properties=species:S:1:pos:R:3:Z:I:1 pbc="F F F"
C      -0.93967152       0.26617092      -0.79289072        6 
C       0.59385929       0.03164635      -0.84725278        6 
C      -1.44001328       1.46486533       0.00252874        6 
C       1.45628692       1.28138193      -0.82148511        6 
O      -0.73130403       1.69331440       1.11987542        8 
O      -2.45276084       2.06255396      -0.27726113        8 
O       2.76529998       0.96077942      -0.86347255        8 
O       1.05745448       2.41982394      -0.83330854        8 
C       3.68584102       2.06523009      -0.91374875        6 
C      -1.14552750       2.81991601       1.90796588        6 
C      -1.35961447      -1.05182272      -0.05462863        6 
C      -0.97933193      -2.27651595      -0.93851046        6 
C       0.53294767      -2.44973322      -0.61778278        6 
C       0.79710140      -1.15724580       0.18143230        6 
O      -0.38524971      -1.09825329       0.99774037        8 
H      -1.39445318       0.33931204      -1.77809592        1 
H       0.82472440      -0.38002914      -1.83507064        1 
H       3.58830078       2.68436255      -0.02038373        1 
H      -2.17630379       2.69740560       2.24478604        1 
H      -1.56243908      -3.14942351      -0.64377665        1 
H      -1.17966111      -2.08945749      -1.99409665        1 
H       0.70944557      -3.31485099       0.02368751        1 
H       1.16951619      -2.54123632      -1.49712811        1 
H       4.67422352       1.61359214      -0.96239143        1 
H       3.49958387       2.67926976      -1.79614064        1 
H      -1.06293192       3.73736272       1.32291907        1 
H      -0.46589391       2.84514559       2.75703225        1 
C      -2.75853686      -1.09735080       0.52265686        6 
C       2.00985494      -1.16423915       1.08892355        6 
O       3.11094949      -1.69192429       0.37437433        8 
H       1.77710329      -1.79256181       1.96083999        1 
H       2.22500342      -0.15092205       1.45108936        1 
C       4.33865908      -1.51726388       1.04901584        6 
H       5.11752626      -1.94399876       0.41647084        1 
H       4.34473185      -2.03214416       2.02063291        1 
H       4.55297302      -0.45200456       1.21484773        1 
O      -3.65996296      -1.14077072      -0.56655329        8 
H      -2.94995654      -0.22022886       1.15351505        1 
H      -2.85742490      -1.99385126       1.15250406        1 
C      -5.00675018      -0.92946771      -0.18434849        6 
H      -5.60837952      -0.98749268      -1.09142782        1 
H      -5.13657772       0.06075271       0.27091001        1 
H      -5.34889633      -1.69862157       0.52288230        1 
