43
Lattice="0.0 0.0 0.0 0.0 0.0 0.0 0.0 0.0 0.0" Properties=species:S:1:pos:R:3:Z:I:1 pbc="F F F"
C      -0.51289009       0.05868697       0.82343534        6 
C       0.98444040      -0.36309965       0.67679008        6 
C      -1.50162512      -1.06825173       1.06708979        6 
C       1.25831435      -1.51764221      -0.30243544        6 
O      -2.67794405      -0.91161010       0.43409832        8 
O      -1.25803614      -2.00080491       1.79245356        8 
O       0.19104093      -2.31147502      -0.49622120        8 
O       2.28165975      -1.66583550      -0.92616091        8 
C       0.34832800      -3.37450445      -1.45122371        6 
C      -3.66537444      -1.92733181       0.68688338        6 
C      -0.64402889       1.24347215      -0.21049280        6 
C      -0.28322621       2.50709318       0.59465295        6 
C       1.18741278       2.17681128       0.96611580        6 
C       1.50684793       0.96908525       0.02827625        6 
O       0.53532602       1.10405648      -1.03142779        8 
H      -0.56616493       0.53249371       1.81102361        1 
H       1.45610648      -0.59178761       1.63163996        1 
H       1.17348036      -4.02738489      -1.16425912        1 
H      -3.91850779      -1.96016193       1.74742608        1 
H      -0.34384319       3.38221135      -0.05524199        1 
H      -0.93945954       2.66682052       1.45015037        1 
H       1.86003873       3.00664316       0.74989189        1 
H       1.32234503       1.91825718       2.01762068        1 
H      -0.59374102      -3.91824557      -1.43206386        1 
H       0.53970778      -2.96678676      -2.44514439        1 
H      -3.29384048      -2.90506138       0.37636244        1 
H      -4.53297147      -1.63983773       0.09657045        1 
C      -1.84963536       1.36333148      -1.11758703        6 
C       2.91143540       1.03430272      -0.53976247        6 
O       3.80416182       0.79403551       0.53541721        8 
H       3.06665369       2.04262414      -0.95295697        1 
H       3.04892938       0.30319630      -1.33600284        1 
C       5.14322657       0.62536226       0.10956304        6 
H       5.74483408       0.45000713       1.00193737        1 
H       5.51784229       1.52317379      -0.40295037        1 
H       5.23645800      -0.23513573      -0.56512731        1 
O      -2.92697079       1.88543496      -0.36034197        8 
H      -2.10926786       0.39161862      -1.55000417        1 
H      -1.58561778       2.05002742      -1.93496238        1 
C      -4.16228342       1.81170426      -1.03969959        6 
H      -4.92071023       2.22977686      -0.37697862        1 
H      -4.42342341       0.77074528      -1.27541310        1 
H      -4.14543137       2.39116753      -1.97401553        1 
