43
Lattice="0.0 0.0 0.0 0.0 0.0 0.0 0.0 0.0 0.0" Properties=species:S:1:pos:R:3:Z:I:1 pbc="F F F"
C      -0.89977068       0.07416971      -0.67854126        6 
C       0.66885959       0.17673837      -0.68196466        6 
C      -1.63982533       1.27782642      -0.10743773        6 
C       1.26042407       1.36292595       0.06355253        6 
O      -1.64370828       2.26323926      -1.03526593        8 
O      -2.19007533       1.36983457       0.95857563        8 
O       2.58704207       1.44992401      -0.17719965        8 
O       0.66747377       2.17046078       0.73344073        8 
C       3.26860111       2.54939904       0.45242859        6 
C      -2.20576862       3.51547090      -0.60727094        6 
C      -1.12531665      -1.29593270       0.03765971        6 
C      -0.80940814      -2.40571663      -0.99461405        6 
C       0.73566178      -2.31702756      -1.08440749        6 
C       1.04339147      -1.21418570      -0.03887904        6 
O       0.00050717      -1.38070046       0.93053244        8 
H      -1.23984263       0.00466408      -1.71165673        1 
H       1.06394368       0.23189047      -1.69595603        1 
H       3.16473299       2.49390122       1.53743428        1 
H      -1.65352260       3.89397149       0.25406994        1 
H      -1.12818681      -3.37102662      -0.59702071        1 
H      -1.32137975      -2.24838326      -1.94361766        1 
H       1.21153266      -3.25189461      -0.78505559        1 
H       1.11137697      -2.05798558      -2.07395016        1 
H       4.31136674       2.44822032       0.15985159        1 
H       2.86279765       3.50031628       0.10347695        1 
H      -3.25692554       3.39328957      -0.34098346        1 
H      -2.10329314       4.18656622      -1.45765680        1 
C      -2.41308424      -1.50101214       0.80808837        6 
C       2.38347546      -1.36995800       0.65071407        6 
O       3.38652949      -1.43641459      -0.34435700        8 
H       2.35524897      -2.29846203       1.23937701        1 
H       2.57051580      -0.54005473       1.34260335        1 
C       4.69382258      -1.35927885       0.18503907        6 
H       5.38592356      -1.41984732      -0.65511099        1 
H       4.89838692      -2.18712501       0.87893188        1 
H       4.85164678      -0.40902508       0.71390109        1 
O      -3.47820423      -1.32902166      -0.11582728        8 
H      -2.48213964      -0.77909584       1.62365798        1 
H      -2.42193558      -2.51922115       1.22372873        1 
C      -4.74365182      -1.24890493       0.51307139        6 
H      -5.48563748      -1.11280827      -0.27447059        1 
H      -4.78647933      -0.39733026       1.20390867        1 
H      -4.97583104      -2.17012339       1.06631122        1 
