43
Lattice="0.0 0.0 0.0 0.0 0.0 0.0 0.0 0.0 0.0" Properties=species:S:1:pos:R:3:Z:I:1 pbc="F F F"
C      -0.84566592       0.22166877      -0.62134853        6 
C       0.70097507      -0.09065292      -0.69195080        6 
C      -1.31872513       1.42829793       0.18978203        6 
C       1.66845851       1.02186147      -0.32162219        6 
O      -0.36885290       2.36506771       0.34095811        8 
O      -2.44450215       1.57775977       0.60010880        8 
O       1.85487584       1.81523053      -1.40179104        8 
O       2.26247201       1.17276244       0.71627871        8 
C       2.71198445       2.94942284      -1.20775590        6 
C      -0.73824477       3.54311832       1.08003221        6 
C      -1.35619144      -1.15036741      -0.06300927        6 
C      -1.06619319      -2.24363044      -1.13498472        6 
C       0.42927489      -2.55587295      -0.88302127        6 
C       0.79015597      -1.43703672       0.11531022        6 
O      -0.37668003      -1.40828899       0.95761250        8 
H      -1.24568107       0.39354754      -1.62313327        1 
H       0.93466111      -0.29888112      -1.73560045        1 
H       3.71643912       2.63005232      -0.92509831        1 
H      -1.08889999       3.27060769       2.07583482        1 
H      -1.70075221      -3.11378427      -0.96583046        1 
H      -1.27341857      -1.88201979      -2.14279382        1 
H       0.55854151      -3.52545120      -0.39783237        1 
H       1.05087874      -2.53570999      -1.77776439        1 
H       2.73076675       3.46833933      -2.16381763        1 
H       2.30986643       3.59911445      -0.42826906        1 
H      -1.52412156       4.08847729       0.55536832        1 
H       0.16964343       4.13820688       1.14439925        1 
C      -2.75026273      -1.24974172       0.52217887        6 
C       2.02272107      -1.69519792       0.95406696        6 
O       3.13051752      -1.72503875       0.06593076        8 
H       1.90893217      -2.66217312       1.46526591        1 
H       2.14240759      -0.90742419       1.70066385        1 
C       4.37532598      -1.63697396       0.73466778        6 
H       5.15318503      -1.67992193      -0.02846664        1 
H       4.51491558      -2.47365348       1.43359883        1 
H       4.45703869      -0.69170698       1.28584451        1 
O      -3.66497697      -1.03987905      -0.53954384        8 
H      -2.89696510      -0.51926919       1.31978613        1 
H      -2.87111724      -2.25930116       0.94318891        1 
C      -4.99025214      -0.82537559      -0.09160961        6 
H      -5.61063506      -0.69046858      -0.97818350        1 
H      -5.05136899       0.07358573       0.53404206        1 
H      -5.36613839      -1.68729635       0.47839381        1 
