43
Lattice="0.0 0.0 0.0 0.0 0.0 0.0 0.0 0.0 0.0" Properties=species:S:1:pos:R:3:Z:I:1 pbc="F F F"
C      -0.91760914       0.34423231      -0.76504044        6 
C       0.60402350       0.02432752      -0.82420683        6 
C      -1.43615329       1.50778182       0.06952390        6 
C       1.64081265       1.13381264      -0.74760333        6 
O      -0.72861553       1.73789949       1.17652069        8 
O      -2.48165902       2.06579927      -0.18451170        8 
O       2.65924303       0.82024651      -1.58512984        8 
O       1.62069015       2.15507159      -0.10865855        8 
C       3.78239764       1.71348347      -1.57382409        6 
C      -1.18837435       2.80491897       2.02028840        6 
C      -1.40114167      -0.99468993      -0.09026105        6 
C      -0.99820996      -2.21329083      -0.97960986        6 
C       0.48620124      -2.44382881      -0.56570950        6 
C       0.73362849      -1.15575016       0.23823648        6 
O      -0.47950015      -1.07751140       1.00257731        8 
H      -1.34783428       0.46393976      -1.75781015        1 
H       0.78985752      -0.41970584      -1.80042901        1 
H       4.22790642       1.75085126      -0.57796499        1 
H      -2.18129474       2.58167915       2.41515518        1 
H      -1.62675335      -3.07219724      -0.74406150        1 
H      -1.12382257      -1.99930914      -2.04157250        1 
H       0.58629884      -3.31063994       0.09096688        1 
H       1.17172967      -2.56032301      -1.40459976        1 
H       4.48872328       1.30003842      -2.29060046        1 
H       3.47928283       2.71963028      -1.86847629        1 
H      -1.22488118       3.74083729       1.46116202        1 
H      -0.45948254       2.86963012       2.82462101        1 
C      -2.82650516      -1.03933886       0.41864492        6 
C       1.88985257      -1.12373396       1.21337002        6 
O       3.09434502      -1.35418465       0.50749276        8 
H       1.72583953      -1.90191471       1.97275155        1 
H       1.91032881      -0.15037185       1.72297292        1 
C       4.24142106      -1.23646580       1.32629348        6 
H       5.10840095      -1.43146932       0.69475591        1 
H       4.22550401      -1.96496636       2.14920328        1 
H       4.32467351      -0.22728155       1.75364467        1 
O      -3.67682308      -1.05885010      -0.71144216        8 
H      -3.04362625      -0.17356004       1.05573957        1 
H      -2.95797236      -1.94729698       1.02602186        1 
C      -5.03714384      -0.83652141      -0.38727585        6 
H      -5.59860757      -0.88051220      -1.32056180        1 
H      -5.17629066       0.15084198       0.07101626        1 
H      -5.41813757      -1.60863131       0.29649283        1 
