43
Lattice="0.0 0.0 0.0 0.0 0.0 0.0 0.0 0.0 0.0" Properties=species:S:1:pos:R:3:Z:I:1 pbc="F F F"
C      -0.83090074       0.21915534      -0.66691541        6 
C       0.70862169      -0.09897076      -0.72517527        6 
C      -1.29960199       1.40022543       0.17275509        6 
C       1.65211082       1.05972781      -0.44637276        6 
O      -0.31152361       2.00506754       0.84739874        8 
O      -2.45959610       1.72418947       0.27546241        8 
O       1.52858170       1.95870989      -1.45475491        8 
O       2.43331653       1.19606646       0.45912124        8 
C       2.31971589       3.15112574      -1.33421112        6 
C      -0.68164868       3.08645213       1.71929347        6 
C      -1.33909021      -1.13057673      -0.03821680        6 
C      -1.05381168      -2.27901215      -1.04892429        6 
C       0.44563263      -2.57012680      -0.78845792        6 
C       0.80914412      -1.39900733       0.14865430        6 
O      -0.35851835      -1.33314659       0.99190978        8 
H      -1.25769834       0.36416881      -1.65864276        1 
H       0.93627514      -0.36441531      -1.75909634        1 
H       3.38124112       2.90537159      -1.28034748        1 
H      -1.37837988       2.73562909       2.48174055        1 
H      -1.68335387      -3.14042453      -0.82498908        1 
H      -1.27013368      -1.97500687      -2.07327437        1 
H       0.58283169      -3.51290786      -0.25521610        1 
H       1.06094247      -2.59354482      -1.68741305        1 
H       2.10672655       3.73422082      -2.22780910        1 
H       2.03465852       3.70663636      -0.43866927        1 
H      -1.14571851       3.89282704       1.14928214        1 
H       0.24975877       3.41710888       2.17318473        1 
C      -2.73345771      -1.18036915       0.55153123        6 
C       2.04243392      -1.61701283       0.99707906        6 
O       3.13931707      -1.75190172       0.10601809        8 
H       1.90704935      -2.53518943       1.58735271        1 
H       2.19140284      -0.77466604       1.67554684        1 
C       4.39320764      -1.59836158       0.74544387        6 
H       5.16002598      -1.72212627      -0.02008738        1 
H       4.54207675      -2.35927291       1.52467084        1 
H       4.48264953      -0.60088077       1.19258870        1 
O      -3.64716096      -1.09392418      -0.52689794        8 
H      -2.89458123      -0.36905571       1.26679596        1 
H      -2.84706986      -2.13644335       1.08420040        1 
C      -4.96720117      -0.79062626      -0.11458676        6 
H      -5.58147466      -0.75116272      -1.01448843        1 
H      -5.00417710       0.18146445       0.39207376        1 
H      -5.36692846      -1.56472718       0.55624042        1 
