43
Lattice="0.0 0.0 0.0 0.0 0.0 0.0 0.0 0.0 0.0" Properties=species:S:1:pos:R:3:Z:I:1 pbc="F F F"
C      -0.78022620       0.14849658       0.94751867        6 
C       0.79914426       0.11047399       0.89594613        6 
C      -1.48610225      -1.18066064       0.77847141        6 
C       1.33347708      -1.27290801       0.55549554        6 
O      -1.21370080      -1.76234638      -0.41224761        8 
O      -2.21435797      -1.67184853       1.60260637        8 
O       1.78682564      -1.41311984      -0.69898534        8 
O       1.31972653      -2.17640628       1.35853453        8 
C       2.20912514      -2.73626820      -1.06963517        6 
C      -1.79437031      -3.06106119      -0.62294241        6 
C      -1.08745590       1.24396378      -0.14476728        6 
C      -0.86182595       2.61015325       0.53749820        6 
C       0.68248400       2.60620383       0.68779179        6 
C       1.07960002       1.30172457      -0.06426973        6 
O       0.03184387       1.16229991      -1.03846350        8 
H      -1.10919971       0.50152429       1.92171816        1 
H       1.19509611       0.31253585       1.88999438        1 
H       1.37539667      -3.43461334      -0.98362735        1 
H      -2.88162906      -3.01224624      -0.54738573        1 
H      -1.19555516       3.40930250      -0.12742152        1 
H      -1.40278254       2.70357696       1.47878501        1 
H       1.13576483       3.46925798       0.19807368        1 
H       1.01852058       2.59943249       1.72516650        1 
H       2.53468313      -2.65627206      -2.10476677        1 
H       3.02707152      -3.07343518      -0.43153641        1 
H      -1.41406359      -3.76695137       0.11708919        1 
H      -1.49293717      -3.35445688      -1.62666269        1 
C      -2.37113017       1.10089370      -0.93358453        6 
C       2.43099107       1.36183971      -0.75101637        6 
O       3.41771977       1.18580609       0.25375742        8 
H       2.54774428       2.33963972      -1.24023097        1 
H       2.50165733       0.57992514      -1.51058898        1 
C       4.73237748       1.13916479      -0.26522140        6 
H       5.40721713       0.99286610       0.57838714        1 
H       4.99578220       2.07529024      -0.77717650        1 
H       4.85080996       0.30548379      -0.97100807        1 
O      -3.44572774       1.17594196      -0.01491233        8 
H      -2.37679051       0.14486829      -1.47033973        1 
H      -2.42812383       1.91093475      -1.67550863        1 
C      -4.70534969       0.93398662      -0.61153254        6 
H      -5.45300931       1.00213954       0.17841817        1 
H      -4.74766164      -0.06821657      -1.06009656        1 
H      -4.93100208       1.67822494      -1.38824571        1 
