43
Lattice="0.0 0.0 0.0 0.0 0.0 0.0 0.0 0.0 0.0" Properties=species:S:1:pos:R:3:Z:I:1 pbc="F F F"
C      -0.84789894      -0.06552914      -0.73592128        6 
C       0.72639432       0.00056347      -0.85615794        6 
C      -1.47416201       1.16860728      -0.10626226        6 
C       1.36915081       1.31357449      -0.45189965        6 
O      -1.44681102       2.17556962      -1.01144629        8 
O      -1.92778440       1.29317568       1.00166931        8 
O       1.12161682       1.62590311       0.83655457        8 
O       2.01971211       2.00918901      -1.19162314        8 
C       1.65048830       2.87750453       1.30460629        6 
C      -1.96356979       3.44175165      -0.56724622        6 
C      -1.02644622      -1.39735958       0.05041616        6 
C      -0.65636723      -2.55987311      -0.91324481        6 
C       0.89470228      -2.49580692      -0.90772395        6 
C       1.13634295      -1.26041604      -0.00934004        6 
O       0.08627707      -1.37241232       0.95851983        8 
H      -1.28021573      -0.14218042      -1.73245337        1 
H       1.02595852      -0.13562696      -1.89236473        1 
H       1.31668422       3.69621675       0.66534660        1 
H      -1.40981383       3.79424217       0.30439577        1 
H      -1.02057216      -3.50516185      -0.50790627        1 
H      -1.09654868      -2.43124466      -1.90227854        1 
H       1.32983891      -3.37861349      -0.43534506        1 
H       1.34019633      -2.38573742      -1.89608283        1 
H       1.26493953       2.99297708       2.31494528        1 
H       2.74186838       2.85313552       1.30798570        1 
H      -3.01964764       3.35230418      -0.30771535        1 
H      -1.83074164       4.12003457      -1.40701179        1 
C      -2.31875611      -1.59540309       0.81716537        6 
C       2.47464991      -1.21377186       0.69646534        6 
O       3.47167947      -1.06282338      -0.29774395        8 
H       2.61709955      -2.14720681       1.26025483        1 
H       2.49588774      -0.37993709       1.40876055        1 
C       4.76947841      -0.88540257       0.23570246        6 
H       5.45022970      -0.77111077      -0.60768417        1 
H       5.07964774      -1.75286138       0.83500589        1 
H       4.82268964       0.01480556       0.86338062        1 
O      -3.38107808      -1.42993774      -0.11126023        8 
H      -2.38938721      -0.86548176       1.62653377        1 
H      -2.33275626      -2.60854622       1.24455708        1 
C      -4.65552154      -1.45962008       0.50308577        6 
H      -5.39613450      -1.31859087      -0.28467962        1 
H      -4.75632043      -0.65556350       1.24386465        1 
H      -4.83947672      -2.42364069       0.99824473        1 
