43
Lattice="0.0 0.0 0.0 0.0 0.0 0.0 0.0 0.0 0.0" Properties=species:S:1:pos:R:3:Z:I:1 pbc="F F F"
C      -0.82296645       0.06919299      -0.69149924        6 
C       0.72081837       0.28975714      -0.62900960        6 
C      -1.70416572       1.29827330      -0.54592139        6 
C       1.09063539       1.33190203       0.43461438        6 
O      -1.23776137       2.27024401      -1.36414492        8 
O      -2.78023571       1.35617864      -0.00600890        8 
O       2.39878950       1.29194888       0.75426765        8 
O       0.35993303       2.19908703       0.84776373        8 
C       2.85757154       2.31153348       1.66164364        6 
C      -1.97662511       3.50121154      -1.35985964        6 
C      -1.02706909      -1.22681126       0.16845947        6 
C      -0.85644448      -2.39893870      -0.81581718        6 
C       0.62175644      -2.19053055      -1.23569702        6 
C       1.12408370      -1.15955539      -0.17704091        6 
O       0.20413522      -1.32583265       0.92097518        8 
H      -1.04934079      -0.20233407      -1.72792635        1 
H       1.16526121       0.59067012      -1.57674351        1 
H       2.32342143       2.24801093       2.61059151        1 
H      -1.95428751       3.94508746      -0.36311866        1 
H      -0.99221256      -3.34173156      -0.28235986        1 
H      -1.56735627      -2.36661349      -1.64102817        1 
H       1.20188486      -3.11120055      -1.16934833        1 
H       0.73494874      -1.81015097      -2.25211769        1 
H       3.91815537       2.11442600       1.80300763        1 
H       2.70490506       3.30144879       1.22940402        1 
H      -3.01182527       3.33280138      -1.66095505        1 
H      -1.47021250       4.14656859      -2.07470800        1 
C      -2.21030748      -1.32168253       1.10761458        6 
C       2.53450043      -1.45836719       0.29314065        6 
O       3.40786395      -1.20114197      -0.79236516        8 
H       2.57933656      -2.51929466       0.58120912        1 
H       2.80321101      -0.85649156       1.16316384        1 
C       4.77049056      -1.33784316      -0.44329317        6 
H       5.35651427      -1.12148348      -1.33685496        1 
H       4.99885331      -2.35806498      -0.10324274        1 
H       5.04907117      -0.63112737       0.35075869        1 
O      -3.35739828      -1.58725001       0.31875122        8 
H      -2.32901015      -0.39331177       1.67371844        1 
H      -2.02572885      -2.14588986       1.81203610        1 
C      -4.57176622      -1.28637722       0.98146157        6 
H      -5.37989169      -1.53892113       0.29407472        1 
H      -4.62520260      -0.21990266       1.22860102        1 
H      -4.68732313      -1.88083832       1.89950349        1 
