43
Lattice="0.0 0.0 0.0 0.0 0.0 0.0 0.0 0.0 0.0" Properties=species:S:1:pos:R:3:Z:I:1 pbc="F F F"
C      -0.91282920       0.11552666      -0.64759179        6 
C       0.65461327      -0.03765500      -0.71525368        6 
C      -1.38365350       1.36422507       0.08535194        6 
C       1.43986345       1.07816848      -0.06046253        6 
O      -0.87131788       2.45315795      -0.53562616        8 
O      -2.14223745       1.43818371       1.01629828        8 
O       2.24037873       1.69246331      -0.95185844        8 
O       1.38539790       1.38356896       1.10778045        8 
C       3.06023712       2.75094496      -0.43089847        6 
C      -1.15817722       3.72208419       0.07786128        6 
C      -1.32262783      -1.25990598      -0.05069909        6 
C      -1.04549884      -2.34050062      -1.13604885        6 
C       0.49394505      -2.51560200      -1.02984667        6 
C       0.83966918      -1.42689261       0.00881834        6 
O      -0.27602900      -1.49219812       0.90564809        8 
H      -1.30664338       0.22434746      -1.65985425        1 
H       0.98670427      -0.10676688      -1.74759839        1 
H       3.71582720       2.37384241       0.35573743        1 
H      -0.71970997       3.75960130       1.07654219        1 
H      -1.57161263      -3.26169114      -0.88233883        1 
H      -1.38542324      -2.02735225      -2.12359868        1 
H       0.75390047      -3.49698961      -0.62809810        1 
H       1.02629888      -2.38223142      -1.97151898        1 
H       3.64351284       3.10965146      -1.27613037        1 
H       2.43927438       3.55169548      -0.02547506        1 
H      -2.23505047       3.88031221       0.14724348        1 
H      -0.70166073       4.46680220      -0.57071438        1 
C      -2.67408075      -1.37756861       0.62391115        6 
C       2.11685620      -1.62427144       0.79766893        6 
O       3.20461522      -1.37865998      -0.07960585        8 
H       2.14990579      -2.65270685       1.18421746        1 
H       2.13432993      -0.93182228       1.64634112        1 
C       4.46088070      -1.43610569       0.56883550        6 
H       5.21973387      -1.21189172      -0.18118473        1 
H       4.65202578      -2.43472225       0.98571870        1 
H       4.52350196      -0.69797961       1.38018075        1 
O      -3.65351258      -1.01817371      -0.33938063        8 
H      -2.71892062      -0.71625459       1.49077080        1 
H      -2.81911175      -2.41674701       0.95395001        1 
C      -4.94211666      -0.86003881       0.22471493        6 
H      -5.61643079      -0.58099033      -0.58562249        1 
H      -4.94338703      -0.07019864       0.98691294        1 
H      -5.29846789      -1.79544531       0.67925031        1 
