43
Lattice="0.0 0.0 0.0 0.0 0.0 0.0 0.0 0.0 0.0" Properties=species:S:1:pos:R:3:Z:I:1 pbc="F F F"
C      -0.85632403       0.04856948       0.89142986        6 
C       0.71676413       0.15284090       0.90834566        6 
C      -1.49320113      -1.25994100       0.46765332        6 
C       1.42047020      -1.18805350       0.75375206        6 
O      -0.80235464      -1.89397550      -0.49881290        8 
O      -2.55694312      -1.65112792       0.88354345        8 
O       2.01266105      -1.39784186      -0.43168735        8 
O       1.45770009      -1.98746932       1.66025632        8 
C       2.65523268      -2.67284793      -0.59093049        6 
C      -1.35667344      -3.13250375      -0.97305198        6 
C      -1.21126223       1.20381970      -0.12249048        6 
C      -0.98472210       2.54951335       0.60524297        6 
C       0.56381495       2.63083206       0.61458587        6 
C       0.95570087       1.31497389      -0.10845276        6 
O      -0.12054336       1.15041964      -1.05039855        8 
H      -1.27903955       0.26607366       1.86894581        1 
H       1.02505666       0.47257691       1.90322993        1 
H       1.92896721      -3.47978087      -0.48007740        1 
H      -2.36029083      -2.97627940      -1.37125569        1 
H      -1.42664317       3.36036310       0.02378331        1 
H      -1.43791610       2.56384923       1.59549298        1 
H       0.92072111       3.48440113       0.03585718        1 
H       0.99523967       2.70143292       1.61318929        1 
H       3.06862210      -2.66563910      -1.59755830        1 
H       3.44528177      -2.79963836       0.15045807        1 
H      -1.40029150      -3.86169479      -0.16257148        1 
H      -0.68242118      -3.46832411      -1.75796923        1 
C      -2.52723840       1.08752805      -0.86316694        6 
C       2.27855210       1.37799886      -0.84477044        6 
O       3.30462655       1.33055615       0.13470580        8 
H       2.33094007       2.31697789      -1.41435258        1 
H       2.36240355       0.53997151      -1.53997009        1 
C       4.59703844       1.21269198      -0.42579706        6 
H       5.30475135       1.16577240       0.40224417        1 
H       4.84253913       2.07719315      -1.05855324        1 
H       4.68465761       0.29795924      -1.02815267        1 
O      -3.56203475       1.30324901       0.07536500        8 
H      -2.61949374       0.09993838      -1.33355864        1 
H      -2.55357085       1.84170011      -1.66331010        1 
C      -4.82996605       0.85990851      -0.37203446        6 
H      -5.54225021       1.07800860       0.42353618        1 
H      -4.82267418      -0.22126631      -0.55968010        1 
H      -5.14072587       1.38577318      -1.28598058        1 
