43
Lattice="0.0 0.0 0.0 0.0 0.0 0.0 0.0 0.0 0.0" Properties=species:S:1:pos:R:3:Z:I:1 pbc="F F F"
C      -0.86945920      -0.02201188      -0.73747251        6 
C       0.70726945      -0.02131641      -0.85037331        6 
C      -1.51357385       1.24777302      -0.19205782        6 
C       1.41071876       1.26458543      -0.45614401        6 
O      -0.98221349       2.32585464      -0.80390893        8 
O      -2.44751977       1.32530241       0.56616227        8 
O       1.32450804       1.50493160       0.87249344        8 
O       1.95055654       2.01237822      -1.23057951        8 
C       1.89917085       2.74211026       1.32299666        6 
C      -1.53001623       3.60549231      -0.44589550        6 
C      -1.10972583      -1.34820155       0.05043691        6 
C      -0.78367164      -2.52447592      -0.91344555        6 
C       0.76725255      -2.52184155      -0.90674760        6 
C       1.06005117      -1.29855118      -0.00664562        6 
O       0.00191124      -1.36539556       0.95998322        8 
H      -1.29179263      -0.10751070      -1.74143850        1 
H       1.00111041      -0.17172365      -1.88662014        1 
H       1.43469654       3.58505779       0.80879551        1 
H      -1.42408369       3.77738659       0.62656705        1 
H      -1.18602792      -3.45358492      -0.50738375        1 
H      -1.22053647      -2.37923022      -1.90143105        1 
H       1.16565963      -3.42316232      -0.43708027        1 
H       1.21679300      -2.42777725      -1.89515363        1 
H       1.69839455       2.78436109       2.39142762        1 
H       2.97365789       2.75828607       1.13200180        1 
H      -2.58639124       3.65687128      -0.71409669        1 
H      -0.95262437       4.33239998      -1.01262597        1 
C      -2.40233292      -1.52889159       0.81990527        6 
C       2.39711020      -1.31704384       0.70536088        6 
O       3.39693107      -1.06865643      -0.26762709        8 
H       2.54344264      -2.29971795       1.17647910        1 
H       2.41206277      -0.55288341       1.49012630        1 
C       4.69493939      -0.95440386       0.28228847        6 
H       5.37825007      -0.76164431      -0.54466967        1 
H       4.99770248      -1.87939128       0.79244887        1 
H       4.75279301      -0.12206897       0.99739896        1 
O      -3.45759780      -1.51830194      -0.12785553        8 
H      -2.52744632      -0.73214021       1.55519858        1 
H      -2.36231014      -2.49569519       1.34358693        1 
C      -4.73455082      -1.41148738       0.47300836        6 
H      -5.47009467      -1.42080565      -0.33200981        1 
H      -4.82536617      -0.47481771       1.03706536        1 
H      -4.93267485      -2.25753174       1.14672078        1 
