43
Lattice="0.0 0.0 0.0 0.0 0.0 0.0 0.0 0.0 0.0" Properties=species:S:1:pos:R:3:Z:I:1 pbc="F F F"
C      -0.70093663       0.25444139      -0.63173542        6 
C       0.85032240       0.03555839      -0.68923440        6 
C      -1.10433787       1.37210743       0.33115342        6 
C       1.71169429       1.26019310      -0.41937967        6 
O      -2.42791471       1.36624069       0.58255005        8 
O      -0.37867645       2.24859827       0.73277938        8 
O       1.45169701       2.18323938      -1.37553955        8 
O       2.59364449       1.38030559       0.39126935        8 
C       2.12663031       3.44241086      -1.22457256        6 
C      -2.92212783       2.44641242       1.39658655        6 
C      -1.11973321      -1.17463642      -0.13906691        6 
C      -0.67873709      -2.21830662      -1.21124316        6 
C       0.81397184      -2.43536700      -0.85881463        6 
C       1.03591603      -1.28332454       0.14046409        6 
O      -0.17264680      -1.36089282       0.92786387        8 
H      -1.13463768       0.49516108      -1.60269022        1 
H       1.09673442      -0.19059043      -1.72925235        1 
H       3.20886192       3.30492562      -1.24412018        1 
H      -2.73536861       3.40517283       0.91079002        1 
H      -1.26349450      -3.13288065      -1.10941944        1 
H      -0.83698227      -1.84471375      -2.22388120        1 
H       0.97082817      -3.38857424      -0.34991912        1 
H       1.48847514      -2.38876743      -1.71328555        1 
H       1.80290917       4.04918447      -2.06786734        1 
H       1.83430438       3.90782570      -0.28192625        1 
H      -2.44046579       2.43940532       2.37521149        1 
H      -3.99106777       2.26798054       1.49228121        1 
C      -2.52158005      -1.43323645       0.37698275        6 
C       2.24266748      -1.42942438       1.04060544        6 
O       3.37901695      -1.53762639       0.19855379        8 
H       2.11903510      -2.34017945       1.64522404        1 
H       2.33040477      -0.56847874       1.70710338        1 
C       4.59667689      -1.28385826       0.87557486        6 
H       5.39699919      -1.38788200       0.14207910        1 
H       4.76231165      -2.00600218       1.68795653        1 
H       4.60851427      -0.26706351       1.28526395        1 
O      -3.41671130      -1.23645431      -0.70295981        8 
H      -2.76949120      -0.77883441       1.21576413        1 
H      -2.56417553      -2.47467618       0.72939961        1 
C      -4.77251578      -1.33114122      -0.31614323        6 
H      -5.37563943      -1.17066463      -1.21011623        1 
H      -5.02596753      -0.56730685       0.43213043        1 
H      -5.00452600      -2.32216651       0.09943852        1 
