43
Lattice="0.0 0.0 0.0 0.0 0.0 0.0 0.0 0.0 0.0" Properties=species:S:1:pos:R:3:Z:I:1 pbc="F F F"
C      -0.82391632      -0.21063863       0.75283646        6 
C       0.71486549       0.06343981       0.85285291        6 
C      -1.12147129      -1.43952311      -0.11758669        6 
C       1.56111333      -1.19445362       1.00673341        6 
O      -2.37530339      -1.43627313      -0.61071813        8 
O      -0.38982151      -2.38991376      -0.24567412        8 
O       2.46275354      -1.40097710       0.03471973        8 
O       1.39843865      -1.94344174       1.93903280        8 
C       3.18245014      -2.64489245       0.11507387        6 
C      -2.77153767      -2.61386546      -1.33782639        6 
C      -1.23969697       1.13670947       0.07042150        6 
C      -0.80215704       2.32859521       0.98282835        6 
C       0.68575271       2.51573533       0.58712454        6 
C       0.92027552       1.21240223      -0.20098430        6 
O      -0.27861247       1.16341857      -1.00636738        8 
H      -1.29172291      -0.37095260       1.72424454        1 
H       0.87019628       0.51582339       1.83535647        1 
H       2.48241625      -3.48044182       0.07940775        1 
H      -2.72826879      -3.49186479      -0.69196575        1 
H      -1.40081141       3.21283812       0.76470920        1 
H      -0.94180461       2.09602963       2.03951547        1 
H       0.81702668       3.37100208      -0.07899044        1 
H       1.36503669       2.62595626       1.43197588        1 
H       3.84024561      -2.65533971      -0.75187484        1 
H       3.76250400      -2.69384952       1.03762520        1 
H      -2.12152448      -2.76826464      -2.20007763        1 
H      -3.79384231      -2.42310368      -1.65793909        1 
C      -2.63814904       1.32852139      -0.48566718        6 
C       2.13274419       1.20340460      -1.10286327        6 
O       3.26861653       1.42655492      -0.28370408        8 
H       2.02592841       2.00890234      -1.84411410        1 
H       2.20974168       0.24790412      -1.62925865        1 
C       4.48888749       1.16777898      -0.94709307        6 
H       5.29010450       1.35651876      -0.23190103        1 
H       4.62406368       1.82673695      -1.81681121        1 
H       4.54212996       0.12322835      -1.28146453        1 
O      -3.54365011       1.19814908       0.59651919        8 
H      -2.85930823       0.60509316      -1.27128819        1 
H      -2.69571470       2.33883640      -0.91797840        1 
C      -4.89613977       1.25374265       0.18981501        6 
H      -5.50764603       1.14353117       1.08567432        1 
H      -5.13333332       0.44147312      -0.51125498        1 
H      -5.13313830       2.21413269      -0.28995385        1 
