43
Lattice="0.0 0.0 0.0 0.0 0.0 0.0 0.0 0.0 0.0" Properties=species:S:1:pos:R:3:Z:I:1 pbc="F F F"
C      -1.02959984       0.17095865      -0.77320600        6 
C       0.52007176      -0.00190838      -0.87389532        6 
C      -1.50876515       1.27727781       0.17906477        6 
C       1.30167313       1.28478671      -1.08063647        6 
O      -0.55588035       2.18207866       0.46612786        8 
O      -2.59028184       1.29907272       0.71646098        8 
O       2.42801681       1.38211625      -0.35355003        8 
O       0.94698280       2.12788245      -1.86852185        8 
C       3.21365142       2.56616456      -0.57716933        6 
C      -0.91298046       3.20364697       1.41240482        6 
C      -1.35134334      -1.21814145      -0.11549249        6 
C      -0.81543728      -2.36931391      -1.02237388        6 
C       0.67670099      -2.45417801      -0.60745906        6 
C       0.80786293      -1.13810328       0.18360273        6 
O      -0.40067533      -1.17869304       0.97346649        8 
H      -1.50661622       0.31132143      -1.74256660        1 
H       0.68904258      -0.46213686      -1.85394492        1 
H       2.63253580       3.45898308      -0.34153448        1 
H      -1.14715418       2.75748629       2.38010746        1 
H      -1.35404040      -3.29335530      -0.81291222        1 
H      -0.95827761      -2.14522871      -2.08047855        1 
H       0.86027533      -3.29878443       0.05953208        1 
H       1.37317760      -2.51597943      -1.44332785        1 
H       4.06838748       2.47575990       0.09003354        1 
H       3.54261272       2.61624584      -1.61602084        1 
H      -1.77534116       3.76795309       1.05598678        1 
H      -0.03800983       3.84604827       1.48571536        1 
C      -2.74430511      -1.49882242       0.41404326        6 
C       1.99828424      -1.04734318       1.11226060        6 
O       3.16135274      -1.36343087       0.36665994        8 
H       1.85333985      -1.77400066       1.92503103        1 
H       2.07313435      -0.04649823       1.54863297        1 
C       4.35531098      -1.08952441       1.06842335        6 
H       5.18425124      -1.37975968       0.42203363        1 
H       4.41487441      -1.66290671       2.00480695        1 
H       4.43986995      -0.01995987       1.30493064        1 
O      -3.62812697      -1.44800897      -0.69428601        8 
H      -3.03368921      -0.77514210       1.17587621        1 
H      -2.74418415      -2.50367162       0.86310804        1 
C      -4.98976820      -1.46556430      -0.30891883        6 
H      -5.58329172      -1.41309555      -1.22219136        1 
H      -5.22840836      -0.60468699       0.32874894        1 
H      -5.24313275      -2.39060370       0.22882460        1 
