43
Lattice="0.0 0.0 0.0 0.0 0.0 0.0 0.0 0.0 0.0" Properties=species:S:1:pos:R:3:Z:I:1 pbc="F F F"
C      -0.62839514      -0.03807276       0.85250066        6 
C       0.92276048      -0.20314327       0.84271105        6 
C      -1.45671587      -1.29676229       0.66606096        6 
C       1.49635200      -1.45250850       0.18554810        6 
O      -2.75000528      -1.03457755       0.95378370        8 
O      -1.06939114      -2.39190875       0.34234529        8 
O       1.12392401      -1.59558077      -1.09739093        8 
O       2.29942144      -2.17113698       0.73164290        8 
C       1.54336902      -2.80779220      -1.74219004        6 
C      -3.66667651      -2.13379392       0.81468824        6 
C      -0.84480963       1.15842569      -0.16240206        6 
C      -0.58945538       2.45399091       0.63698041        6 
C       0.93826112       2.33300691       0.89917684        6 
C       1.31339914       1.08752172       0.04691173        6 
O       0.32311021       1.10055280      -0.99199322        8 
H      -0.93168378       0.32032192       1.83830467        1 
H       1.33423912      -0.19088040       1.84883721        1 
H       1.08333127      -3.66484611      -1.24734308        1 
H      -3.39565374      -2.94718294       1.48944600        1 
H      -0.82179675       3.31760390       0.01150672        1 
H      -1.19516142       2.51786302       1.53994782        1 
H       1.48174721       3.20862445       0.54181158        1 
H       1.19114641       2.19598841       1.95085899        1 
H       1.19137768      -2.72662746      -2.76860523        1 
H       2.62937750      -2.91024324      -1.71377605        1 
H      -3.66511096      -2.50600702      -0.21150705        1 
H      -4.64247026      -1.72888398       1.07392447        1 
C      -2.07428501       1.15521059      -1.04873685        6 
C       2.70417738       1.12054505      -0.55230009        6 
O       3.62189191       1.14714400       0.52567155        8 
H       2.80629700       2.01810303      -1.17982870        1 
H       2.87077346       0.24352321      -1.18916503        1 
C       4.96446743       0.95753090       0.12026672        6 
H       5.57726679       0.98667780       1.02116676        1 
H       5.29368332       1.75166876      -0.56486170        1 
H       5.09618299      -0.01538846      -0.37176734        1 
O      -3.17260304       1.64124408      -0.30248115        8 
H      -2.27428122       0.14453495      -1.43047311        1 
H      -1.87306944       1.80448901      -1.91320933        1 
C      -4.40641117       1.48196568      -0.97085087        6 
H      -5.18125572       1.88036886      -0.31547280        1 
H      -4.61587598       0.42181629      -1.17242389        1 
H      -4.42507385       2.03113118      -1.92316295        1 
