43
Lattice="0.0 0.0 0.0 0.0 0.0 0.0 0.0 0.0 0.0" Properties=species:S:1:pos:R:3:Z:I:1 pbc="F F F"
C      -0.89357081       0.11108231      -0.68102465        6 
C       0.67545499       0.01261481      -0.68571453        6 
C      -1.45336128       1.41815505      -0.13852825        6 
C       1.37591132       1.09256099       0.11396661        6 
O      -0.78377963       2.45296583      -0.69919555        8 
O      -2.41784913       1.57052390       0.56541169        8 
O       2.36032237       1.66385234      -0.60681937        8 
O       1.12681581       1.39620040       1.25647417        8 
C       3.11718744       2.68319523       0.06593990        6 
C      -1.18703150       3.76884891      -0.28212556        6 
C      -1.29845676      -1.23232379       0.00363424        6 
C      -1.07928059      -2.35997215      -1.03906902        6 
C       0.46927414      -2.46549294      -1.07048181        6 
C       0.86623552      -1.39986934      -0.02015956        6 
O      -0.21348313      -1.45472826       0.92026011        8 
H      -1.24189885       0.10476407      -1.71721721        1 
H       1.07750195       0.02584619      -1.69474993        1 
H       3.63010830       2.26892173       0.93573905        1 
H      -1.02853158       3.88527234       0.79111080        1 
H      -1.53518810      -3.28167033      -0.67415971        1 
H      -1.52827131      -2.12688656      -2.00440377        1 
H       0.81299985      -3.45015448      -0.74842868        1 
H       0.90551517      -2.26354009      -2.04869095        1 
H       3.83704728       3.04132669      -0.66681195        1 
H       2.46241485       3.49327853       0.39147715        1 
H      -2.23898188       3.93954348      -0.51452185        1 
H      -0.55436660       4.45541546      -0.84071478        1 
C      -2.61789768      -1.30840654       0.74208656        6 
C       2.17000460      -1.64814711       0.70922688        6 
O       3.22150739      -1.52388801      -0.23274039        8 
H       2.14922344      -2.65778719       1.14407795        1 
H       2.28414011      -0.92816339       1.52898737        1 
C       4.50384940      -1.64328436       0.35102870        6 
H       5.23394368      -1.51865375      -0.44884002        1 
H       4.64440659      -2.62922086       0.81590132        1 
H       4.66852598      -0.86899461       1.11332245        1 
O      -3.64639532      -1.11828669      -0.21617124        8 
H      -2.66232201      -0.54638291       1.52308772        1 
H      -2.70284546      -2.30055578       1.20945620        1 
C      -4.89612183      -0.80805590       0.37295770        6 
H      -5.61107127      -0.68068502      -0.44068823        1 
H      -4.83341227       0.12178784       0.95096384        1 
H      -5.24390307      -1.61948900       1.02830233        1 
