43
Lattice="0.0 0.0 0.0 0.0 0.0 0.0 0.0 0.0 0.0" Properties=species:S:1:pos:R:3:Z:I:1 pbc="F F F"
C      -0.68250882      -0.04675753      -0.66196017        6 
C       0.87060828       0.21649756      -0.57119944        6 
C      -1.61769228       1.12430475      -0.42073170        6 
C       1.30707302       1.30984031       0.41349344        6 
O      -1.51378831       1.98671115      -1.45792978        8 
O      -2.46744405       1.22787591       0.42917185        8 
O       0.55323631       2.42089391       0.28836529        8 
O       2.22592875       1.24695050       1.19103164        8 
C       0.88170885       3.51347001       1.16630137        6 
C      -2.34435167       3.15360880      -1.38866132        6 
C      -0.83514260      -1.39320974       0.13377778        6 
C      -0.56808210      -2.50806900      -0.89750542        6 
C       0.92002617      -2.23062452      -1.22611946        6 
C       1.31836822      -1.20767330      -0.11782281        6 
O       0.36219086      -1.45627636       0.93169888        8 
H      -0.88169942      -0.26830284      -1.71238257        1 
H       1.27957769       0.49140865      -1.54452124        1 
H       1.90709130       3.84373452       0.99542012        1 
H      -2.10811622       3.73583344      -0.49578538        1 
H      -0.69681611      -3.47920492      -0.41537410        1 
H      -1.23636043      -2.46056051      -1.75673791        1 
H       1.53295615      -3.12849814      -1.14497679        1 
H       1.07544623      -1.82199127      -2.22591154        1 
H       0.17720030       4.30405711       0.91818145        1 
H       0.76832861       3.21092905       2.20805629        1 
H      -3.39951416       2.87626625      -1.36490653        1 
H      -2.11918424       3.72632654      -2.28593218        1 
C      -2.05233273      -1.59804949       1.00805998        6 
C       2.72878183      -1.41565235       0.40078398        6 
O       3.61538866      -0.98390808      -0.62016681        8 
H       2.87062733      -2.48736535       0.60545416        1 
H       2.89043760      -0.85545890       1.32175996        1 
C       4.96552966      -0.95728721      -0.19751059        6 
H       5.56014615      -0.60542397      -1.04117142        1 
H       5.31536228      -1.95820301       0.09331967        1 
H       5.09971609      -0.27331077       0.65052357        1 
O      -3.17207991      -1.70339155       0.14303824        8 
H      -2.17320759      -0.76241292       1.70170313        1 
H      -1.91797308      -2.52497380       1.58483852        1 
C      -4.40803282      -1.54754337       0.81571327        6 
H      -5.19451160      -1.65577705       0.06804514        1 
H      -4.47859146      -0.55493652       1.27676443        1 
H      -4.54351757      -2.31698950       1.58905025        1 
