43
Lattice="0.0 0.0 0.0 0.0 0.0 0.0 0.0 0.0 0.0" Properties=species:S:1:pos:R:3:Z:I:1 pbc="F F F"
C      -0.67239801       0.06768581       0.86456128        6 
C       0.90307773      -0.00247321       0.74091375        6 
C      -1.45646391      -1.20121549       0.58059757        6 
C       1.52725017      -1.26947067       0.16064994        6 
O      -1.58621278      -1.44935690      -0.74184720        8 
O      -1.88512399      -1.93236813       1.43662325        8 
O       0.84761338      -2.36483307       0.54372940        8 
O       2.56844085      -1.33301992      -0.44602670        8 
C       1.38252572      -3.63590626       0.13792224        6 
C      -2.27128899      -2.66363946      -1.08403943        6 
C      -0.98746320       1.32974020      -0.01637578        6 
C      -0.67921468       2.56549867       0.85887691        6 
C       0.86829720       2.50701991       0.92244632        6 
C       1.18470432       1.32365759      -0.03790030        6 
O       0.08895278       1.35508841      -0.96685254        8 
H      -0.92757748       0.28071239       1.90086476        1 
H       1.34200183       0.05522792       1.74005614        1 
H       2.39689458      -3.76285860       0.51836810        1 
H      -3.29040027      -2.65225624      -0.69364433        1 
H      -1.02178155       3.46639381       0.34614342        1 
H      -1.16872882       2.52166264       1.83181821        1 
H       1.32409995       3.42299173       0.54463738        1 
H       1.26063022       2.33405476       1.92474516        1 
H       0.71412248      -4.37743345       0.56987393        1 
H       1.39406629      -3.71154090      -0.95072532        1 
H      -1.74341360      -3.52619911      -0.67370431        1 
H      -2.27707941      -2.69974681      -2.17167591        1 
C      -2.31209148       1.36786292      -0.75288026        6 
C       2.49191554       1.48672787      -0.78648418        6 
O       3.52959739       1.49658938       0.17952974        8 
H       2.45977021       2.44300485      -1.32974650        1 
H       2.63145315       0.67779226      -1.50552607        1 
C       4.81234264       1.29965842      -0.38593019        6 
H       5.53161743       1.33262938       0.43307338        1 
H       5.05864854       2.09112766      -1.10833713        1 
H       4.87333556       0.32456807      -0.88412142        1 
O      -3.33020785       1.07194340       0.18841486        8 
H      -2.30684732       0.63470109      -1.56494378        1 
H      -2.45948617       2.36853751      -1.18370361        1 
C      -4.61597294       0.98183707      -0.39389161        6 
H      -5.31467385       0.73610965       0.40581583        1 
H      -4.65220344       0.19420807      -1.15950672        1 
H      -4.91532473       1.93355256      -0.85442714        1 
