43
Lattice="0.0 0.0 0.0 0.0 0.0 0.0 0.0 0.0 0.0" Properties=species:S:1:pos:R:3:Z:I:1 pbc="F F F"
C      -0.76753560      -0.09442795       0.79450562        6 
C       0.79624191       0.09041867       0.75553393        6 
C      -1.37716838      -1.33093447       0.16376698        6 
C       1.58252609      -1.12721829       0.29699083        6 
O      -0.66375156      -1.79894311      -0.87361218        8 
O      -2.44303423      -1.79262588       0.49692422        8 
O       1.48893578      -2.08332128       1.25493900        8 
O       2.20414462      -1.28222804      -0.72150168        8 
C       2.11388805      -3.34115025       0.94933064        6 
C      -1.20349176      -2.93142161      -1.57505067        6 
C      -1.22005330       1.20274199       0.02042634        6 
C      -0.97346504       2.41546115       0.95180726        6 
C       0.56520573       2.57858559       0.84188159        6 
C       0.93776264       1.39711882      -0.08855687        6 
O      -0.19657848       1.33838611      -0.97214515        8 
H      -1.14787485      -0.07504940       1.81300128        1 
H       1.14205842       0.27364355       1.77356990        1 
H       3.18563580      -3.20946839       0.79382723        1 
H      -2.16757800      -2.67935289      -2.01952538        1 
H      -1.50090728       3.28960021       0.56672498        1 
H      -1.33188778       2.23168830       1.96436169        1 
H       0.83114545       3.51876994       0.35532747        1 
H       1.08813353       2.53628962       1.79714979        1 
H       1.92701698      -3.97702081       1.81201805        1 
H       1.67219656      -3.77405897       0.04970885        1 
H      -1.33274050      -3.77573134      -0.89590932        1 
H      -0.47366387      -3.16340269      -2.34740918        1 
C      -2.58082385       1.17519436      -0.64469640        6 
C       2.20803380       1.59789016      -0.88818612        6 
O       3.28514140       1.56250250       0.03702903        8 
H       2.16320380       2.57345839      -1.39384691        1 
H       2.30933695       0.80978948      -1.63679136        1 
C       4.55008907       1.47686355      -0.59194971        6 
H       5.30063681       1.45095629       0.19881484        1 
H       4.73861414       2.34878299      -1.23427571        1 
H       4.62734994       0.56405061      -1.19624805        1 
O      -3.55597357       1.20794533       0.37822628        8 
H      -2.69321785       0.27830728      -1.26755587        1 
H      -2.66950226       2.05140256      -1.30335841        1 
C      -4.84748504       0.83585972      -0.06673785        6 
H      -5.51403414       0.90898312       0.79252689        1 
H      -4.85138670      -0.19717659      -0.43691673        1 
H      -5.20856933       1.50664342      -0.85937037        1 
