43
Lattice="0.0 0.0 0.0 0.0 0.0 0.0 0.0 0.0 0.0" Properties=species:S:1:pos:R:3:Z:I:1 pbc="F F F"
C      -0.66142951       0.14293789       0.84774697        6 
C       0.85931294      -0.17296704       0.77849220        6 
C      -1.73437867      -0.92207211       1.03162818        6 
C       1.38379971      -1.35796960      -0.02028605        6 
O      -1.42078714      -2.15557126       0.60126721        8 
O      -2.77351466      -0.67756829       1.59970076        8 
O       0.59034799      -1.72874814      -1.03174654        8 
O       2.50478070      -1.79367750       0.12978260        8 
C       1.10115271      -2.74918579      -1.90244741        6 
C      -2.40542006      -3.17631444       0.84545789        6 
C      -0.85068080       1.21468407      -0.30939323        6 
C      -0.60338219       2.57850251       0.35927529        6 
C       0.88873253       2.40309548       0.76584867        6 
C       1.29671138       1.12132202      -0.02504473        6 
O       0.34461552       1.08405287      -1.09740973        8 
H      -0.79790533       0.69527461       1.77796511        1 
H       1.32395041      -0.21537663       1.76136109        1 
H       1.30289020      -3.66502853      -1.34391771        1 
H      -3.34840912      -2.92316398       0.35873428        1 
H      -0.72617654       3.37402028      -0.37815173        1 
H      -1.27563474       2.77159252       1.19454163        1 
H       1.50219626       3.24769185       0.45169048        1 
H       1.03265543       2.27816502       1.83989260        1 
H       0.32002295      -2.91571809      -2.64102754        1 
H       2.02129428      -2.41663975      -2.38613721        1 
H      -2.57793796      -3.29430150       1.91639528        1 
H      -1.98597713      -4.08611948       0.42128926        1 
C      -2.06066130       1.08155914      -1.20925758        6 
C       2.70795615       1.15755493      -0.57317662        6 
O       3.58450532       1.21535040       0.53572965        8 
H       2.81882639       2.04777742      -1.20960053        1 
H       2.91402548       0.27561404      -1.18929083        1 
C       4.91968103       0.87063384       0.21169415        6 
H       5.49946048       0.94559298       1.13184713        1 
H       5.34314401       1.55834174      -0.53413004        1 
H       4.97613893      -0.15706679      -0.16793687        1 
O      -3.17750738       1.62328020      -0.53425861        8 
H      -2.22620732       0.02461379      -1.46233319        1 
H      -1.86471710       1.62445281      -2.14552587        1 
C      -4.41311289       1.27318413      -1.12431604        6 
H      -5.19536552       1.74422742      -0.52942978        1 
H      -4.56316781       0.18498657      -1.11323320        1 
H      -4.48312758       1.63252610      -2.16123196        1 
