43
Lattice="0.0 0.0 0.0 0.0 0.0 0.0 0.0 0.0 0.0" Properties=species:S:1:pos:R:3:Z:I:1 pbc="F F F"
C      -0.56293599       0.07183568       0.83596450        6 
C       0.99564443      -0.11003453       0.68399245        6 
C      -1.39479874      -1.19582896       0.93867332        6 
C       1.46730202      -1.28098236      -0.18997891        6 
O      -2.19489897      -1.42848427      -0.11929818        8 
O      -1.29305272      -1.95628440       1.86876867        8 
O       0.73387212      -2.38873461       0.01617823        8 
O       2.40060037      -1.26426772      -0.95451587        8 
C       1.11278613      -3.55928046      -0.72779225        6 
C      -2.96481782      -2.64132043      -0.06519739        6 
C      -0.85075664       1.27395960      -0.14036227        6 
C      -0.62845763       2.54095793       0.71052562        6 
C       0.88623239       2.40638580       1.01076831        6 
C       1.31889249       1.27070386       0.03019650        6 
O       0.30633858       1.30697290      -0.99736078        8 
H      -0.69681953       0.46140321       1.84832558        1 
H       1.47020295      -0.23746554       1.65813556        1 
H       2.13635792      -3.84985978      -0.48723876        1 
H      -3.64540979      -2.62565176       0.78744719        1 
H      -0.84074737       3.42478234       0.10518649        1 
H      -1.26221919       2.57069438       1.59638349        1 
H       1.43286534       3.32291870       0.78938143        1 
H       1.09885742       2.14302749       2.04785003        1 
H       0.41395894      -4.33327523      -0.41794703        1 
H       1.03448740      -3.37222911      -1.79981221        1 
H      -2.30603495      -3.50681394       0.01929049        1 
H      -3.52282386      -2.67294545      -0.99894856        1 
C      -2.10598170       1.28003589      -0.98358071        6 
C       2.68946773       1.50749906      -0.57617924        6 
O       3.63841362       1.31446124       0.46098874        8 
H       2.73028220       2.54211620      -0.94876219        1 
H       2.87178815       0.82489644      -1.40569996        1 
C       4.97170075       1.29918653      -0.01312393        6 
H       5.61905613       1.14562015       0.85080794        1 
H       5.23758704       2.25145485      -0.49399424        1 
H       5.12439472       0.48273217      -0.73050751        1 
O      -3.21014310       1.36131530      -0.09692694        8 
H      -2.16288786       0.37716407      -1.59748536        1 
H      -2.07685701       2.15671654      -1.64694438        1 
C      -4.45118244       1.16156329      -0.74226061        6 
H      -5.22799835       1.24867385       0.01797137        1 
H      -4.50358595       0.16401620      -1.19957237        1 
H      -4.62700458       1.91693830      -1.52125414        1 
