43
Lattice="0.0 0.0 0.0 0.0 0.0 0.0 0.0 0.0 0.0" Properties=species:S:1:pos:R:3:Z:I:1 pbc="F F F"
C      -0.86322449       0.02293553       0.88445508        6 
C       0.70772148       0.15447993       0.90764778        6 
C      -1.48439426      -1.28279412       0.42921761        6 
C       1.44026817      -1.17362791       0.77604313        6 
O      -0.74136355      -1.93685887      -0.48207798        8 
O      -2.58269257      -1.65117509       0.77089169        8 
O       2.04833580      -1.38609802      -0.40107651        8 
O       1.48886218      -1.95880935       1.69432683        8 
C       2.71879837      -2.64933470      -0.53705040        6 
C      -1.28930327      -3.16435862      -0.99147125        6 
C      -1.23194398       1.18787697      -0.11522764        6 
C      -1.00743663       2.52888039       0.62337962        6 
C       0.53962897       2.62897426       0.60879383        6 
C       0.93460754       1.31527483      -0.11452640        6 
O      -0.14638914       1.14491695      -1.04991521        8 
H      -1.29532517       0.21923684       1.86254891        1 
H       1.00202885       0.48954714       1.90182731        1 
H       2.00881259      -3.46971538      -0.41934464        1 
H      -2.25159693      -2.98299316      -1.47231208        1 
H      -1.46872889       3.34070870       0.05879534        1 
H      -1.44440609       2.52684376       1.62094866        1 
H       0.87701576       3.48366768       0.01996475        1 
H       0.98670922       2.70926957       1.59973135        1 
H       3.13940687      -2.64792835      -1.54072527        1 
H       3.50594756      -2.74875452       0.21159386        1 
H      -1.42013866      -3.88452856      -0.18250101        1 
H      -0.56277422      -3.52592713      -1.71596782        1 
C      -2.55132289       1.07898847      -0.85135913        6 
C       2.25180637       1.38693605      -0.85944072        6 
O       3.28394807       1.37114513       0.11474104        8 
H       2.28556076       2.31808535      -1.44314482        1 
H       2.34569420       0.54009270      -1.54244849        1 
C       4.57429461       1.25865405      -0.45142499        6 
H       5.28774423       1.23881341       0.37279600        1 
H       4.80410604       2.11277641      -1.10390533        1 
H       4.67040398       0.33258232      -1.03489625        1 
O      -3.58264858       1.29351806       0.09098796        8 
H      -2.65012610       0.09557027      -1.32843184        1 
H      -2.57641760       1.83887103      -1.64624218        1 
C      -4.85165928       0.84834470      -0.35195663        6 
H      -5.56133114       1.06549840       0.44627181        1 
H      -4.84300685      -0.23257821      -0.53970878        1 
H      -5.16658956       1.37444115      -1.26440870        1 
