43
Lattice="0.0 0.0 0.0 0.0 0.0 0.0 0.0 0.0 0.0" Properties=species:S:1:pos:R:3:Z:I:1 pbc="F F F"
C      -0.85210774       0.06238100       0.90773720        6 
C       0.72483214       0.11031791       0.89882304        6 
C      -1.47814919      -1.26686132       0.53432355        6 
C       1.33752485      -1.27089730       0.70767806        6 
O      -0.99072871      -1.74567343      -0.63250975        8 
O      -2.32759118      -1.82764318       1.17820675        8 
O       2.12591346      -1.41453757      -0.36758491        8 
O       1.11281648      -2.17002989       1.48399225        8 
C       2.66647857      -2.73140263      -0.57626575        6 
C      -1.47322466      -3.03862373      -1.03440884        6 
C      -1.18457357       1.21649475      -0.10624197        6 
C      -0.93703024       2.55626452       0.62367153        6 
C       0.61303338       2.59681436       0.65799975        6 
C       0.98482728       1.28786477      -0.09290670        6 
O      -0.09352101       1.15664524      -1.03578554        8 
H      -1.24867288       0.29496068       1.89221752        1 
H       1.06667752       0.39295393       1.89570126        1 
H       1.85921364      -3.45389661      -0.70566907        1 
H      -2.55516931      -3.01940316      -1.17601810        1 
H      -1.34586266       3.37730401       0.03184048        1 
H      -1.40590098       2.58606656       1.60651144        1 
H       1.00108132       3.45519502       0.10742704        1 
H       1.02990088       2.63140573       1.66447651        1 
H       3.26310018      -2.65836423      -1.48322173        1 
H       3.28526470      -3.03147165       0.27018560        1 
H      -1.22312531      -3.78389196      -0.27755703        1 
H      -0.96918895      -3.25631567      -1.97385885        1 
C      -2.49889139       1.11574908      -0.85144992        6 
C       2.30513372       1.35498535      -0.83240032        6 
O       3.33456588       1.34622031       0.14427619        8 
H       2.33828949       2.28377718      -1.42021035        1 
H       2.40256558       0.50609499      -1.51206180        1 
C       4.62485667       1.21662383      -0.41806012        6 
H       5.33762782       1.20959808       0.40701051        1 
H       4.85963088       2.05674469      -1.08689103        1 
H       4.71719904       0.27885796      -0.98309206        1 
O      -3.53674942       1.25063487       0.10055709        8 
H      -2.56722461       0.15487344      -1.37756529        1 
H      -2.54567566       1.91617187      -1.60461119        1 
C      -4.82093574       0.99613299      -0.43563157        6 
H      -5.53763282       1.12403436       0.37533539        1 
H      -4.89412427      -0.03053979      -0.81944267        1 
H      -5.06392112       1.69768157      -1.24624044        1 
