43
Lattice="0.0 0.0 0.0 0.0 0.0 0.0 0.0 0.0 0.0" Properties=species:S:1:pos:R:3:Z:I:1 pbc="F F F"
C      -0.88008556       0.17256561      -0.56256583        6 
C       0.68338669      -0.01709558      -0.66794368        6 
C      -1.35919130       1.25216438       0.41587246        6 
C       1.56047524       1.19194331      -0.39896309        6 
O      -0.67984208       2.40528013       0.25057601        8 
O      -2.25876833       1.14945371       1.21138773        8 
O       1.46462366       2.04265619      -1.44583846        8 
O       2.35785391       1.34198229       0.49384210        8 
C       2.23120740       3.25055951      -1.34490198        6 
C      -1.06058050       3.49428052       1.11201738        6 
C      -1.26070111      -1.26995274      -0.10660794        6 
C      -0.83504305      -2.27079702      -1.22502776        6 
C       0.66984588      -2.47946739      -0.92314458        6 
C       0.90161880      -1.36251940       0.11433984        6 
O      -0.28078100      -1.48250151       0.92773128        8 
H      -1.30900657       0.42521396      -1.53342399        1 
H       0.88884382      -0.21449517      -1.72113310        1 
H       3.29530916       3.02650499      -1.25548682        1 
H      -0.90998468       3.22221057       2.15736316        1 
H      -1.40471124      -3.19606433      -1.13479108        1 
H      -1.02641189      -1.86764376      -2.22072915        1 
H       0.85302899      -3.44788798      -0.45311609        1 
H       1.32008446      -2.39282464      -1.79319975        1 
H       2.03118758       3.80111246      -2.26181565        1 
H       1.91362709       3.82991812      -0.47582482        1 
H      -2.10748954       3.75636927       0.95371123        1 
H      -0.41191171       4.32190672       0.83434530        1 
C      -2.65410552      -1.53955340       0.42898555        6 
C       2.13695429      -1.51960913       0.97237285        6 
O       3.25297529      -1.52577244       0.09603193        8 
H       2.06701283      -2.47092235       1.51983763        1 
H       2.20931851      -0.70027053       1.69202288        1 
C       4.48290003      -1.31108676       0.76373027        6 
H       5.26801707      -1.35021139       0.00785181        1 
H       4.67273620      -2.09044952       1.51530609        1 
H       4.49571400      -0.32866970       1.25117125        1 
O      -3.57119936      -1.15402551      -0.58370790        8 
H      -2.83194094      -0.98420300       1.35009025        1 
H      -2.74454877      -2.61605221       0.63812813        1 
C      -4.91812805      -1.21962640      -0.15534163        6 
H      -5.53929406      -0.91095424      -0.99674034        1 
H      -5.09631736      -0.54581506       0.69278712        1 
H      -5.19626683      -2.24200941       0.13809107        1 
