43
Lattice="0.0 0.0 0.0 0.0 0.0 0.0 0.0 0.0 0.0" Properties=species:S:1:pos:R:3:Z:I:1 pbc="F F F"
C      -0.73437819       0.13938439       0.94020963        6 
C       0.83605208       0.02617133       0.88704941        6 
C      -1.60022390      -1.10585847       0.87278426        6 
C       1.44745790      -1.28838825       0.42171903        6 
O      -1.26914246      -1.95351218      -0.11952269        8 
O      -2.54018926      -1.29258840       1.60749524        8 
O       1.30003297      -1.52541689      -0.89177607        8 
O       2.09806055      -2.00072457       1.15121701        8 
C       1.84124707      -2.76381332      -1.37286556        6 
C      -2.08424365      -3.13253960      -0.24503820        6 
C      -1.01299337       1.21690616      -0.18664516        6 
C      -0.77429370       2.59380112       0.46628871        6 
C       0.76300734       2.54304219       0.67841398        6 
C       1.14878593       1.23097377      -0.06356049        6 
O       0.12013525       1.10237956      -1.05525796        8 
H      -1.01148607       0.57183086       1.89927411        1 
H       1.25397632       0.18685469       1.87770451        1 
H       1.37167840      -3.60687033      -0.86244546        1 
H      -3.12380696      -2.86111562      -0.43605825        1 
H      -1.05438997       3.38095622      -0.23643760        1 
H      -1.34747005       2.73293036       1.38221862        1 
H       1.26441004       3.39523199       0.21734713        1 
H       1.05695405       2.51621217       1.72799079        1 
H       1.61232037      -2.78524137      -2.43636220        1 
H       2.91976153      -2.80723340      -1.21007544        1 
H      -2.03222225      -3.73030323       0.66586083        1 
H      -1.66983677      -3.67976994      -1.08909429        1 
C      -2.28477016       1.07116154      -0.99363963        6 
C       2.51368973       1.25921479      -0.72196447        6 
O       3.47550480       1.27380157       0.31879281        8 
H       2.59538750       2.16162360      -1.34524404        1 
H       2.64767729       0.38548538      -1.36810234        1 
C       4.80653207       1.18564189      -0.15209524        6 
H       5.45632919       1.18051035       0.72291168        1 
H       5.06521925       2.04334186      -0.78878169        1 
H       4.96557893       0.26018777      -0.72271654        1 
O      -3.37128930       1.35750107      -0.13420308        8 
H      -2.35832114       0.05503267      -1.40290960        1 
H      -2.25370794       1.77395997      -1.83885386        1 
C      -4.62738314       1.00923313      -0.68226608        6 
H      -5.38386976       1.28261089       0.05300962        1 
H      -4.69032521      -0.07063871      -0.87446837        1 
H      -4.82232459       1.55007406      -1.61918769        1 
