43
Lattice="0.0 0.0 0.0 0.0 0.0 0.0 0.0 0.0 0.0" Properties=species:S:1:pos:R:3:Z:I:1 pbc="F F F"
C      -0.84068336       0.07620901       0.91490494        6 
C       0.73692163       0.12548633       0.90553128        6 
C      -1.47084898      -1.25820930       0.56888986        6 
C       1.35263855      -1.25090232       0.69614803        6 
O      -0.98712123      -1.76358482      -0.58786349        8 
O      -2.32153391      -1.80247956       1.22547909        8 
O       2.04924643      -1.40898713      -0.43873561        8 
O       1.20383745      -2.13556796       1.50674046        8 
C       2.57859552      -2.72584386      -0.66986235        6 
C      -1.48289701      -3.05831956      -0.96764179        6 
C      -1.17569039       1.21743481      -0.11398499        6 
C      -0.94184800       2.56536992       0.60494878        6 
C       0.60781241       2.61094091       0.65647720        6 
C       0.99276364       1.30165471      -0.08736606        6 
O      -0.07897339       1.15777743      -1.03640051        8 
H      -1.23305833       0.32498441       1.89724484        1 
H       1.08101716       0.40401202       1.90190082        1 
H       1.76689166      -3.45271007      -0.72833161        1 
H      -2.56495454      -3.03087736      -1.10684910        1 
H      -1.34623196       3.37866984      -0.00050402        1 
H      -1.42269593       2.60391047       1.58168753        1 
H       0.99958116       3.47017974       0.10994588        1 
H       1.01188147       2.64793820       1.66819861        1 
H       3.10450932      -2.66344338      -1.62038722        1 
H       3.26064148      -3.01256757       0.13141787        1 
H      -1.23802540      -3.79413801      -0.19995905        1 
H      -0.98369010      -3.29568938      -1.90488226        1 
C      -2.48535306       1.10023914      -0.86474992        6 
C       2.31899509       1.36931055      -0.81733306        6 
O       3.34198270       1.31189486       0.16451553        8 
H       2.37375170       2.31399877      -1.37742794        1 
H       2.40455872       0.53888836      -1.52125418        1 
C       4.63549969       1.19966315      -0.39446865        6 
H       5.34213622       1.14815521       0.43425978        1 
H       4.88096332       2.06885639      -1.02088529        1 
H       4.72544204       0.28912872      -1.00278059        1 
O      -3.52857851       1.24634899       0.07971912        8 
H      -2.54776129       0.13094694      -1.37598167        1 
H      -2.53056498       1.88844446      -1.63079024        1 
C      -4.80873669       0.97192908      -0.45640680        6 
H      -5.52950318       1.11027500       0.34922460        1 
H      -4.87277532      -0.06257697      -0.82022313        1 
H      -5.05372487       1.65579425      -1.28135402        1 
