43
Lattice="0.0 0.0 0.0 0.0 0.0 0.0 0.0 0.0 0.0" Properties=species:S:1:pos:R:3:Z:I:1 pbc="F F F"
C      -0.87911315       0.16514924      -0.59928364        6 
C       0.68274697      -0.07006955      -0.67245109        6 
C      -1.35022494       1.36599296       0.21902469        6 
C       1.56899411       1.06210161      -0.18610292        6 
O      -0.61506892       2.45866347      -0.07394649        8 
O      -2.30754092       1.41035952       0.94991514        8 
O       1.93551973       1.83528809      -1.22986490        8 
O       1.99029743       1.22304483       0.93395448        8 
C       2.77907427       2.95243136      -0.91437870        6 
C      -0.97349204       3.67018134       0.61447620        6 
C      -1.33388049      -1.23011224      -0.07063369        6 
C      -1.02775421      -2.27732277      -1.18325792        6 
C       0.48649843      -2.53426588      -0.97639498        6 
C       0.82288998      -1.44895613       0.06764557        6 
O      -0.32990041      -1.49617091       0.92430817        8 
H      -1.27546956       0.34585919      -1.60080398        1 
H       0.95238057      -0.20022474      -1.71898003        1 
H       3.72370113       2.61035658      -0.48840189        1 
H      -0.84267539       3.54427545       1.68995395        1 
H      -1.62071728      -3.17870944      -1.02509759        1 
H      -1.27279344      -1.89470081      -2.17501810        1 
H       0.66613781      -3.51882852      -0.53980821        1 
H       1.08639900      -2.44825135      -1.88223389        1 
H       2.94858413       3.46604990      -1.85842853        1 
H       2.28436044       3.61384350      -0.20094933        1 
H      -2.00970643       3.93691573       0.40276357        1 
H      -0.29594358       4.43051824       0.23253912        1 
C      -2.71274852      -1.37758152       0.54074011        6 
C       2.07784020      -1.68845788       0.87909465        6 
O       3.17972143      -1.54159765      -0.00506771        8 
H       2.04813336      -2.70466373       1.29747135        1 
H       2.13546308      -0.96692872       1.69777106        1 
C       4.42429768      -1.49670611       0.66751308        6 
H       5.19532893      -1.37033165      -0.09322421        1 
H       4.61626059      -2.42769473       1.21929222        1 
H       4.46275867      -0.65287496       1.36850257        1 
O      -3.65514506      -1.02858385      -0.46059702        8 
H      -2.81436662      -0.73399165       1.41559397        1 
H      -2.84655433      -2.42513182       0.84894458        1 
C      -4.96807699      -0.88785740       0.04917429        6 
H      -5.61246178      -0.62268324      -0.78965049        1 
H      -5.01233185      -0.09432564       0.80591886        1 
H      -5.32893593      -1.82671046       0.49317672        1 
