43
Lattice="0.0 0.0 0.0 0.0 0.0 0.0 0.0 0.0 0.0" Properties=species:S:1:pos:R:3:Z:I:1 pbc="F F F"
C      -0.73414236       0.17432001       0.95690388        6 
C       0.84290850       0.08850247       0.90041951        6 
C      -1.50737619      -1.12949163       0.88866790        6 
C       1.41329084      -1.25890822       0.48531786        6 
O      -1.38638172      -1.76176626      -0.29683981        8 
O      -2.18013177      -1.55326310       1.79602431        8 
O       1.35959464      -1.48735632      -0.83746237        8 
O       1.90720599      -2.03330310       1.27117532        8 
C       1.81769049      -2.77530452      -1.27560199        6 
C      -2.10123195      -3.00337005      -0.42651325        6 
C      -1.02402226       1.25133906      -0.15877133        6 
C      -0.77848448       2.62554169       0.50216973        6 
C       0.76541646       2.59297953       0.66995187        6 
C       1.14055735       1.27663846      -0.06957844        6 
O       0.09712406       1.14548968      -1.04500834        8 
H      -1.02144989       0.58005169       1.92404304        1 
H       1.25915150       0.27074800       1.88788784        1 
H       1.22148758      -3.56532451      -0.81550194        1 
H      -3.17331164      -2.84356616      -0.29967835        1 
H      -1.08696932       3.41808583      -0.18263377        1 
H      -1.32488557       2.74997066       1.43703645        1 
H       1.24244752       3.44410773       0.18167652        1 
H       1.08990984       2.58365547       1.71084243        1 
H       1.68406191      -2.77701119      -2.35546102        1 
H       2.86726531      -2.92385424      -1.01643581        1 
H      -1.75718871      -3.72134737       0.31953561        1 
H      -1.88201063      -3.35821367      -1.43151235        1 
C      -2.30283276       1.10230326      -0.95419980        6 
C       2.49396423       1.29044126      -0.75242125        6 
O       3.47624650       1.20897425       0.26678299        8 
H       2.60235887       2.22150633      -1.32748563        1 
H       2.57671581       0.44648272      -1.44459829        1 
C       4.79605063       1.13869086      -0.23788101        6 
H       5.46305665       1.04473318       0.61897313        1 
H       5.05884333       2.04447361      -0.80201530        1 
H       4.92544625       0.26533479      -0.89193305        1 
O      -3.37792700       1.08887942      -0.03262705        8 
H      -2.26880380       0.17191204      -1.53286061        1 
H      -2.39516289       1.94455618      -1.65504994        1 
C      -4.63329409       0.86137098      -0.64335570        6 
H      -5.37952998       0.85241641       0.15086700        1 
H      -4.65296495      -0.10490629      -1.16652689        1 
H      -4.87952372       1.65549686      -1.36205169        1 
