43
Lattice="0.0 0.0 0.0 0.0 0.0 0.0 0.0 0.0 0.0" Properties=species:S:1:pos:R:3:Z:I:1 pbc="F F F"
C      -0.91397626       0.11100713      -0.78991313        6 
C       0.63648054      -0.15618358      -0.87958297        6 
C      -1.41603885       1.41064776      -0.17748805        6 
C       1.51124134       1.09018829      -0.86491857        6 
O      -0.46087350       2.15112933       0.40424545        8 
O      -2.58474520       1.71930908      -0.16103104        8 
O       2.20984073       1.29540426       0.26307725        8 
O       1.59151277       1.81237394      -1.83077944        8 
C       3.01983559       2.48063138       0.28473791        6 
C      -0.88834258       3.38262628       1.01287148        6 
C      -1.34347289      -1.12085331       0.09307316        6 
C      -1.11752372      -2.41403889      -0.73710840        6 
C       0.41137857      -2.61832430      -0.59506477        6 
C       0.81937379      -1.32685237       0.14978568        6 
O      -0.28338143      -1.15396453       1.06131768        8 
H      -1.38625770       0.05340218      -1.76957893        1 
H       0.83124005      -0.54904213      -1.87791410        1 
H       2.39876496       3.36609236       0.13935224        1 
H      -1.62272194       3.18493298       1.79446030        1 
H      -1.68165650      -3.23860515      -0.30005116        1 
H      -1.45439086      -2.29723843      -1.76704540        1 
H       0.64081440      -3.48231766       0.03171621        1 
H       0.93521782      -2.74043411      -1.54306770        1 
H       3.48637450       2.49575418       1.26781372        1 
H       3.77696624       2.44456593      -0.50013045        1 
H      -1.32657791       4.04230587       0.26286093        1 
H       0.01202683       3.82302971       1.43499098        1 
C      -2.68597023      -1.07929543       0.79380865        6 
C       2.10863193      -1.44083840       0.93452755        6 
O       3.16534314      -1.55684847      -0.00515635        8 
H       2.05721414      -2.33641470       1.57063247        1 
H       2.24627724      -0.56523460       1.57256081        1 
C       4.44334128      -1.45950431       0.59073579        6 
H       5.18017162      -1.56157305      -0.20637303        1 
H       4.60418594      -2.25563221       1.33128732        1 
H       4.57595274      -0.48658224       1.08378412        1 
O      -3.68447118      -1.22030429      -0.19896706        8 
H      -2.81638942      -0.14704351       1.35206184        1 
H      -2.72559746      -1.91391057       1.50966849        1 
C      -4.97149900      -0.82877871       0.24276296        6 
H      -5.65620413      -0.98856571      -0.59042232        1 
H      -4.98237034       0.23197602       0.52105722        1 
H      -5.30344182      -1.43351591       1.09886688        1 
