43
Lattice="0.0 0.0 0.0 0.0 0.0 0.0 0.0 0.0 0.0" Properties=species:S:1:pos:R:3:Z:I:1 pbc="F F F"
C      -0.60405970      -0.03088564       0.84349567        6 
C       0.93150123      -0.26111202       0.81238631        6 
C      -1.51271127      -1.24345979       0.75513659        6 
C       1.48584764      -1.46048577       0.05471766        6 
O      -2.73010651      -0.91619755       1.24492297        8 
O      -1.25312974      -2.34442089       0.33796821        8 
O       0.91601861      -1.64860274      -1.14227505        8 
O       2.45126243      -2.08152907       0.43872364        8 
C       1.38038049      -2.77820843      -1.89655071        6 
C      -3.73333303      -1.94386876       1.18944954        6 
C      -0.79910390       1.14067057      -0.20952243        6 
C      -0.56159249       2.44662684       0.57419853        6 
C       0.94675731       2.28611727       0.92405856        6 
C       1.35089422       1.05310334       0.06132823        6 
O       0.39294934       1.07921503      -1.00579087        8 
H      -0.84881602       0.39181304       1.81917956        1 
H       1.36301814      -0.30862135       1.80944258        1 
H       1.15955783      -3.70214365      -1.35940727        1 
H      -3.41792739      -2.82032859       1.75754650        1 
H      -0.73055834       3.30106236      -0.08371477        1 
H      -1.21470723       2.54519414       1.44034497        1 
H       1.52953420       3.15951887       0.63004789        1 
H       1.12772654       2.11216364       1.98539560        1 
H       0.83143810      -2.74438881      -2.83514755        1 
H       2.45476376      -2.71033145      -2.07567569        1 
H      -3.92230119      -2.23909854       0.15551769        1 
H      -4.62488693      -1.50137335       1.62831141        1 
C      -2.00196310       1.09997031      -1.13000502        6 
C       2.75898594       1.09142788      -0.49365173        6 
O       3.64251400       1.11403629       0.61107586        8 
H       2.88050903       1.99000606      -1.11616332        1 
H       2.94702434       0.21637381      -1.12832321        1 
C       4.98316263       0.82072439       0.26203929        6 
H       5.56797004       0.86287390       1.18091937        1 
H       5.38317293       1.55500064      -0.45158483        1 
H       5.06535696      -0.18468206      -0.17042443        1 
O      -3.12811511       1.59693510      -0.43358551        8 
H      -2.17846689       0.07452680      -1.48588550        1 
H      -1.78134221       1.72319879      -2.00887462        1 
C      -4.33107514       1.45611937      -1.16055714        6 
H      -5.13026420       1.86492447      -0.54191389        1 
H      -4.54754308       0.39986683      -1.37502833        1 
H      -4.29551030       2.00725668      -2.11112900        1 
