43
Lattice="0.0 0.0 0.0 0.0 0.0 0.0 0.0 0.0 0.0" Properties=species:S:1:pos:R:3:Z:I:1 pbc="F F F"
C      -0.71197277       0.15842348       0.95769463        6 
C       0.85479951       0.00873271       0.88557216        6 
C      -1.59258264      -1.07894304       0.93977341        6 
C       1.43899596      -1.30983429       0.39993414        6 
O      -1.42769821      -1.85480226      -0.14894513        8 
O      -2.40883495      -1.31661731       1.79721723        8 
O       1.18029079      -1.57711597      -0.88989286        8 
O       2.15667710      -2.00084854       1.08603131        8 
C       1.69949118      -2.81532806      -1.39596699        6 
C      -2.27040666      -3.01833823      -0.22821473        6 
C      -0.97745103       1.22949275      -0.17796490        6 
C      -0.71268639       2.60497815       0.46820353        6 
C       0.82516004       2.52834423       0.67593165        6 
C       1.18466492       1.20869817      -0.06579507        6 
O       0.15091504       1.09689282      -1.05177877        8 
H      -0.95844197       0.60911182       1.91650243        1 
H       1.28984383       0.15644162       1.87090647        1 
H       1.28662253      -3.65758084      -0.83760013        1 
H      -3.32232333      -2.72856643      -0.25263650        1 
H      -0.98012688       3.39395030      -0.23753483        1 
H      -1.27870185       2.75950716       1.38644689        1 
H       1.34006703       3.37087990       0.21213526        1 
H       1.12199325       2.49777653       1.72451244        1 
H       1.38487252      -2.85563900      -2.43671063        1 
H       2.78824894      -2.84062949      -1.32134338        1 
H      -2.10035617      -3.67210117       0.62824454        1 
H      -1.98789161      -3.51587454      -1.15375253        1 
C      -2.24815711       1.09624167      -0.98773385        6 
C       2.54690974       1.20666075      -0.72909750        6 
O       3.51358690       1.25700704       0.30476282        8 
H       2.62854464       2.08340126      -1.38813173        1 
H       2.67496419       0.30871839      -1.34423207        1 
C       4.84094253       1.12622415      -0.16703994        6 
H       5.49513094       1.16028247       0.70398285        1 
H       5.10693546       1.94478093      -0.85058014        1 
H       4.98521461       0.16903154      -0.68676285        1 
O      -3.33965022       1.26709236      -0.10326405        8 
H      -2.28137256       0.11203100      -1.47102868        1 
H      -2.25292738       1.86450686      -1.77492949        1 
C      -4.59368905       1.02741802      -0.71086709        6 
H      -5.35349563       1.16168132       0.05874228        1 
H      -4.65737690       0.00262085      -1.10281050        1 
H      -4.78342003       1.73173840      -1.53310193        1 
