43
Lattice="0.0 0.0 0.0 0.0 0.0 0.0 0.0 0.0 0.0" Properties=species:S:1:pos:R:3:Z:I:1 pbc="F F F"
C      -0.77692528       0.12120846      -0.68046256        6 
C       0.79848472       0.13822732      -0.67258894        6 
C      -1.50647301       1.24642364       0.02965930        6 
C       1.49055697       1.25928675       0.08157613        6 
O      -2.26767957       1.93125663      -0.86092842        8 
O      -1.43847304       1.53731541       1.19519813        8 
O       2.22131272       2.00943834      -0.78186909        8 
O       1.40875500       1.50397712       1.25649417        8 
C       2.94808244       3.10122653      -0.19508085        6 
C      -3.06112785       2.99602235      -0.31204961        6 
C      -1.06255498      -1.28521072      -0.03060066        6 
C      -0.76158481      -2.35622127      -1.10787250        6 
C       0.79261282      -2.33929996      -1.12697718        6 
C       1.10051642      -1.27302943      -0.04520116        6 
O       0.02588755      -1.44553100       0.88319482        8 
H      -1.12627365       0.13013547      -1.70971514        1 
H       1.16311206       0.17898181      -1.69577684        1 
H       3.69654653       2.72646100       0.50593154        1 
H      -2.42886826       3.72901797       0.19140643        1 
H      -1.14696837      -3.32414692      -0.78195572        1 
H      -1.21794909      -2.12003306      -2.06894617        1 
H       1.20658495      -3.30243970      -0.82313456        1 
H       1.21943130      -2.08249259      -2.09646389        1 
H       3.42869500       3.61175753      -1.02704378        1 
H       2.27116136       3.77466255       0.33312054        1 
H      -3.78530149       2.59940627       0.40240206        1 
H      -3.57191802       3.44573260      -1.16095778        1 
C      -2.36475991      -1.44422217       0.72583983        6 
C       2.41543461      -1.42963306       0.68942539        6 
O       3.45419133      -1.09506051      -0.21672071        8 
H       2.51580271      -2.46857651       1.03441484        1 
H       2.42859752      -0.76984574       1.56394642        1 
C       4.73731467      -1.13017117       0.37889195        6 
H       5.45538335      -0.83442742      -0.38627165        1 
H       4.98619106      -2.13973304       0.73468281        1 
H       4.80200655      -0.43308327       1.22553242        1 
O      -3.42226454      -1.13947300      -0.16894171        8 
H      -2.37359021      -0.76952543       1.58908700        1 
H      -2.44584631      -2.47816262       1.09046549        1 
C      -4.69538217      -1.18639022       0.44702561        6 
H      -5.42977500      -0.91407145      -0.31132051        1 
H      -4.75887084      -0.47781927       1.28419130        1 
H      -4.92219481      -2.19442170       0.82149001        1 
