43
Lattice="0.0 0.0 0.0 0.0 0.0 0.0 0.0 0.0 0.0" Properties=species:S:1:pos:R:3:Z:I:1 pbc="F F F"
C      -0.76161569      -0.07113535       0.79530207        6 
C       0.80980847       0.02170174       0.88421581        6 
C      -1.30589209      -1.36985690       0.20663390        6 
C       1.56828756      -1.29009167       0.72581386        6 
O      -2.63757301      -1.29552718       0.00240070        8 
O      -0.68824309      -2.39243304       0.04623553        8 
O       1.92612708      -1.56734902      -0.53992554        8 
O       1.82616686      -2.00086280       1.66595960        8 
C       2.51097364      -2.86274567      -0.74973278        6 
C      -3.27663923      -2.50945492      -0.43348076        6 
C      -1.06040778       1.23807949      -0.02227543        6 
C      -0.70059618       2.45248858       0.88326127        6 
C       0.84099161       2.50928022       0.74179546        6 
C       1.11194086       1.22591224      -0.07399631        6 
O       0.00118707       1.21675078      -0.98859902        8 
H      -1.21287370      -0.00384022       1.78675998        1 
H       1.06724633       0.31364340       1.90134624        1 
H       1.79854657      -3.63744136      -0.46345257        1 
H      -3.11840633      -3.30598767       0.29466264        1 
H      -1.17827846       3.35614774       0.50302455        1 
H      -1.04242821       2.30886520       1.90855031        1 
H       1.15570567       3.37931416       0.16200870        1 
H       1.37700628       2.52287441       1.69047003        1 
H       2.72711616      -2.91482068      -1.81522626        1 
H       3.42578299      -2.97215166      -0.16491223        1 
H      -2.88254008      -2.82539710      -1.40085651        1 
H      -4.33403715      -2.26573295      -0.51150585        1 
C      -2.37844866       1.40950199      -0.75061729        6 
C       2.41161246       1.22155985      -0.85186418        6 
O       3.46201232       1.04573383       0.08514910        8 
H       2.52034212       2.17912493      -1.38149401        1 
H       2.40293927       0.41182202      -1.58560681        1 
C       4.70973759       0.78197721      -0.52607280        6 
H       5.43811871       0.64892510       0.27409796        1 
H       5.02918629       1.61568957      -1.16707894        1 
H       4.66632847      -0.13378393      -1.13123839        1 
O      -3.39981783       1.55613867       0.21812322        8 
H      -2.58083135       0.56116563      -1.41051849        1 
H      -2.30099032       2.31493494      -1.37078927        1 
C      -4.69676762       1.50630028      -0.33931862        6 
H      -5.40557453       1.62561432       0.48044705        1 
H      -4.87744174       0.54252366      -0.83502177        1 
H      -4.85404465       2.31341068      -1.06915596        1 
