43
Lattice="0.0 0.0 0.0 0.0 0.0 0.0 0.0 0.0 0.0" Properties=species:S:1:pos:R:3:Z:I:1 pbc="F F F"
C      -0.65376122       0.05873114      -0.69120672        6 
C       0.91438299       0.09883321      -0.70691063        6 
C      -1.29825031       1.15177840       0.13510922        6 
C       1.50586322       1.39736644      -0.17795852        6 
O      -2.42381934       1.59828937      -0.45932942        8 
O      -0.91031361       1.55348593       1.20589000        8 
O       0.95625939       2.43097725      -0.86227391        8 
O       2.37842373       1.54177110       0.63716146        8 
C       1.33705221       3.74773368      -0.42649168        6 
C      -3.16784237       2.59057219       0.26786015        6 
C      -0.89347331      -1.34826362      -0.02988383        6 
C      -0.51891663      -2.43008850      -1.07290639        6 
C       1.03121888      -2.37909541      -1.02105722        6 
C       1.27516300      -1.24313395       0.00542373        6 
O       0.17666747      -1.42478520       0.91835988        8 
H      -1.07657380       0.09551296      -1.69181759        1 
H       1.25189549       0.06054056      -1.74490260        1 
H       2.41812246       3.87733842      -0.49013819        1 
H      -2.56892489       3.49218340       0.40626472        1 
H      -0.90200798      -3.40072431      -0.75315059        1 
H      -0.93769919      -2.21538172      -2.05583632        1 
H       1.44799633      -3.31032891      -0.63382019        1 
H       1.50132071      -2.17734225      -1.98341423        1 
H       0.82779200       4.43437568      -1.09952055        1 
H       1.01062727       3.90440930       0.60300204        1 
H      -3.46559168       2.20756330       1.24546742        1 
H      -4.04263355       2.80246810      -0.34308467        1 
C      -2.21293685      -1.56723642       0.68124285        6 
C       2.58636400      -1.33724260       0.75562478        6 
O       3.62451424      -1.13654059      -0.19119274        8 
H       2.66543271      -2.33555743       1.21038245        1 
H       2.62393823      -0.58426625       1.54527169        1 
C       4.86687879      -0.82650656       0.41368186        6 
H       5.58899058      -0.68548410      -0.39139189        1 
H       5.21295411      -1.64359736       1.06275666        1 
H       4.79307960       0.09592685       1.00222905        1 
O      -3.23494976      -1.59570834      -0.29825230        8 
H      -2.39245305      -0.77150493       1.41630669        1 
H      -2.16351455      -2.52121146       1.22599235        1 
C      -4.53136978      -1.68346360       0.25873054        6 
H      -5.23790399      -1.69687878      -0.57133972        1 
H      -4.74859100      -0.81898189       0.90191017        1 
H      -4.65403566      -2.60164478       0.85039611        1 
