43
Lattice="0.0 0.0 0.0 0.0 0.0 0.0 0.0 0.0 0.0" Properties=species:S:1:pos:R:3:Z:I:1 pbc="F F F"
C      -0.79488661       0.11598866       0.89515273        6 
C       0.78460224       0.14873862       0.94596433        6 
C      -1.33456079      -1.26346891       0.54834146        6 
C       1.48377746      -1.18503047       0.78109944        6 
O      -1.78072760      -1.39751854      -0.70954056        8 
O      -1.33486042      -2.16819164       1.35002675        8 
O       1.21348762      -1.76545354      -0.41060596        8 
O       2.20091721      -1.68249023       1.61109799        8 
C       1.77703046      -3.07290317      -0.61337039        6 
C      -2.21829815      -2.71437360      -1.08420118        6 
C      -1.07188547       1.31097812      -0.06152610        6 
C      -0.66687457       2.61183247       0.69290104        6 
C       0.87714669       2.60958464       0.53758569        6 
C       1.09465680       1.24282522      -0.14624533        6 
O      -0.02657231       1.16839853      -1.03796802        8 
H      -1.19018032       0.31505122       1.89007047        1 
H       1.11430196       0.50165393       1.91995218        1 
H       1.38194346      -3.77046501       0.12684475        1 
H      -3.04481217      -3.04100010      -0.45156234        1 
H      -1.11846586       3.47843418       0.20792956        1 
H      -0.99942437       2.60282804       1.73144015        1 
H       1.21213198       3.40768294      -0.12796143        1 
H       1.42109541       2.70017591       1.47742508        1 
H       1.47752221      -3.36559909      -1.61785701        1 
H       2.86436768      -3.03943967      -0.53109157        1 
H      -1.39503676      -3.42447229      -0.99373609        1 
H      -2.53635615      -2.62900763      -2.12123791        1 
C      -2.42361648       1.37969854      -0.74743690        6 
C       2.37591419       1.09072155      -0.93700144        6 
O       3.45067119       1.14259392      -0.01682386        8 
H       2.44467882       1.90628353      -1.67171490        1 
H       2.36766527       0.13891678      -1.48112057        1 
C       4.70637589       0.87593254      -0.61109073        6 
H       5.45340690       0.92783787       0.18067934        1 
H       4.94883757       1.61618103      -1.38649433        1 
H       4.72897727      -0.12644252      -1.06068368        1 
O      -3.41192302       1.20478341       0.25579536        8 
H      -2.49783411       0.60112459      -1.51012552        1 
H      -2.53535855       2.35987004      -1.23314160        1 
C      -4.72678579       1.17521691      -0.26428081        6 
H      -5.40355164       1.02841236       0.57764213        1 
H      -4.85286987       0.34882581      -0.97732423        1 
H      -4.98060145       2.11812081      -0.76861948        1 
