43
Lattice="0.0 0.0 0.0 0.0 0.0 0.0 0.0 0.0 0.0" Properties=species:S:1:pos:R:3:Z:I:1 pbc="F F F"
C      -0.70236735      -0.23458223       0.64067703        6 
C       0.85201867       0.03849247       0.67288650        6 
C      -1.07240538      -1.46987672      -0.18496716        6 
C       1.74513689      -1.13917270       0.31864854        6 
O      -2.23532540      -1.35958305      -0.84686478        8 
O      -0.43296296      -2.49439443      -0.17855420        8 
O       1.85911560      -1.94213818       1.39710407        8 
O       2.36235600      -1.30818835      -0.70359766        8 
C       2.55613989      -3.18018717       1.18311243        6 
C      -2.66594649      -2.52957112      -1.56900835        6 
C      -1.18224016       1.15889205       0.12378557        6 
C      -0.78967331       2.22410205       1.19723291        6 
C       0.69334729       2.50433586       0.85105869        6 
C       0.96491744       1.36750798      -0.15338261        6 
O      -0.24268431       1.38805140      -0.94102911        8 
H      -1.08327815      -0.43993318       1.64308844        1 
H       1.11835389       0.25460423       1.70744163        1 
H       3.57795046      -2.99566577       0.84814835        1 
H      -2.83438210      -3.35958069      -0.88150957        1 
H      -1.41088846       3.11374110       1.09209568        1 
H      -0.93463963       1.84610173       2.21035623        1 
H       0.81116424       3.46522326       0.34599012        1 
H       1.36718146       2.48068908       1.70703892        1 
H       2.55404915      -3.68542843       2.14671011        1 
H       2.02600529      -3.77446643       0.43722917        1 
H      -1.91765530      -2.81850761      -2.30779825        1 
H      -3.59504775      -2.23966545      -2.05515486        1 
C      -2.59544464       1.35018270      -0.39311131        6 
C       2.16645941       1.55997903      -1.05173766        6 
O       3.31354425       1.57262326      -0.21580790        8 
H       2.06349598       2.51642813      -1.58494943        1 
H       2.22307100       0.74853246      -1.78070837        1 
C       4.51860610       1.35046292      -0.92645340        6 
H       5.33013085       1.38810849      -0.19895645        1 
H       4.68490773       2.12694033      -1.68645998        1 
H       4.50864855       0.36675159      -1.41127665        1 
O      -3.48239688       1.00575574       0.65807152        8 
H      -2.77710691       0.73855126      -1.27818444        1 
H      -2.71895571       2.40785070      -0.66899430        1 
C      -4.83932940       1.03994127       0.26469271        6 
H      -5.43574746       0.76915413       1.13636773        1 
H      -5.03661567       0.32247526      -0.54382647        1 
H      -5.13535044       2.04299365      -0.07417495        1 
