43
Lattice="0.0 0.0 0.0 0.0 0.0 0.0 0.0 0.0 0.0" Properties=species:S:1:pos:R:3:Z:I:1 pbc="F F F"
C      -0.82611843      -0.07150872      -0.72296312        6 
C       0.75513305       0.07155174      -0.76931567        6 
C      -1.56911598       1.17456969      -0.27025468        6 
C       1.25480928       1.39279648      -0.19665043        6 
O      -1.56997437       2.07053030      -1.27356815        8 
O      -2.16728617       1.34106631       0.76553002        8 
O       1.62598811       1.32277075       1.09565412        8 
O       1.22654300       2.43037262      -0.81306550        8 
C       2.00789776       2.56546703       1.71128133        6 
C      -2.18639674       3.33940780      -1.00079272        6 
C      -0.99137771      -1.38956100       0.09947153        6 
C      -0.69331476      -2.55247962      -0.87853339        6 
C       0.84267327      -2.41887502      -1.04837041        6 
C       1.17053094      -1.25683282      -0.06827126        6 
O       0.16716503      -1.40580460       0.95003920        8 
H      -1.17709477      -0.23316903      -1.74171927        1 
H       1.08834819       0.08451389      -1.80511754        1 
H       1.17689318       3.27179974       1.68741614        1 
H      -1.68104081       3.83268827      -0.16929969        1 
H      -0.96002974      -3.49914110      -0.40495766        1 
H      -1.25624023      -2.47179776      -1.80812679        1 
H       1.35836040      -3.32610032      -0.73031290        1 
H       1.15692301      -2.19883062      -2.06917449        1 
H       2.26214088       2.31219177       2.73826413        1 
H       2.86526259       3.00125663       1.19583839        1 
H      -3.24239025       3.20781230      -0.75961419        1 
H      -2.06696356       3.91945613      -1.91281809        1 
C      -2.24686350      -1.55910182       0.92846493        6 
C       2.55500351      -1.32120954       0.55036329        6 
O       3.47206801      -0.83653242      -0.41944717        8 
H       2.78953109      -2.36111642       0.81822749        1 
H       2.58640638      -0.70900884       1.45422624        1 
C       4.79429695      -0.73831656       0.07375076        6 
H       5.40946148      -0.33536980      -0.73101092        1 
H       5.18773151      -1.72105424       0.36903817        1 
H       4.84485631      -0.06398889       0.93993130        1 
O      -3.34617922      -1.47295639       0.03403637        8 
H      -2.30180119      -0.78031053       1.69260905        1 
H      -2.22204616      -2.54307319       1.41912925        1 
C      -4.59141090      -1.37035032       0.69909392        6 
H      -5.36142822      -1.30353978      -0.07016477        1 
H      -4.62830169      -0.47218869       1.32865752        1 
H      -4.78652029      -2.25367296       1.32371085        1 
