43
Lattice="0.0 0.0 0.0 0.0 0.0 0.0 0.0 0.0 0.0" Properties=species:S:1:pos:R:3:Z:I:1 pbc="F F F"
C      -0.69186011       0.21089269      -0.64320027        6 
C       0.86091491       0.05706161      -0.70798780        6 
C      -1.14033049       1.27909729       0.34570073        6 
C       1.65678633       1.32164417      -0.42675012        6 
O      -2.48031090       1.43699739       0.30798117        8 
O      -0.42197250       1.96047958       1.03422791        8 
O       1.19437557       2.30786233      -1.23381173        8 
O       2.63654194       1.44028583       0.26193371        8 
C       1.81288665       3.59390103      -1.06682820        6 
C      -3.02159273       2.44876694       1.17684567        6 
C      -1.05569171      -1.22203580      -0.11214984        6 
C      -0.61809379      -2.27335631      -1.17360449        6 
C       0.89614259      -2.41969223      -0.87383419        6 
C       1.10738482      -1.25494715       0.11527965        6 
O      -0.07924398      -1.36597587       0.93157314        8 
H      -1.15413433       0.41735547      -1.60681707        1 
H       1.12056546      -0.14906472      -1.75001256        1 
H       2.88286597       3.53727534      -1.27280203        1 
H      -2.61024668       3.42722079       0.92475862        1 
H      -1.16087858      -3.20751491      -1.02539636        1 
H      -0.82907779      -1.93062942      -2.18740180        1 
H       1.11468306      -3.36321339      -0.36991391        1 
H       1.53567270      -2.34758153      -1.75311414        1 
H       1.32022090       4.24862701      -1.78291087        1 
H       1.65620351       3.95190286      -0.04802708        1 
H      -2.79209520       2.22193280       2.21923638        1 
H      -4.09596434       2.42977755       1.00711549        1 
C      -2.44021090      -1.47360342       0.44964821        6 
C       2.33898633      -1.36393034       0.98693868        6 
O       3.45592899      -1.46987039       0.11927326        8 
H       2.24516855      -2.26545695       1.61030635        1 
H       2.42863962      -0.49054072       1.63692249        1 
C       4.68419083      -1.17253802       0.75822997        6 
H       5.46829940      -1.28048073       0.00795375        1 
H       4.88518067      -1.86812126       1.58576228        1 
H       4.68436354      -0.14473394       1.13923082        1 
O      -3.35975265      -1.38566991      -0.62280530        8 
H      -2.68924305      -0.75503647       1.23746090        1 
H      -2.45225946      -2.48059291       0.89219183        1 
C      -4.70709971      -1.43690790      -0.19923257        6 
H      -5.32844036      -1.36329904      -1.09200981        1 
H      -4.94257233      -0.60106541       0.47398624        1 
H      -4.93190991      -2.38114368       0.31700570        1 
