43
Lattice="0.0 0.0 0.0 0.0 0.0 0.0 0.0 0.0 0.0" Properties=species:S:1:pos:R:3:Z:I:1 pbc="F F F"
C      -0.81479707       0.16899726      -0.71571710        6 
C       0.74168037       0.10263978      -0.80290576        6 
C      -1.32367276       1.29317891       0.16988165        6 
C       1.39105560       1.46953138      -0.63622456        6 
O      -2.49906691       1.76224873      -0.29678766        8 
O      -0.79975101       1.69123897       1.18063190        8 
O       2.60858046       1.44467563      -0.07465248        8 
O       0.87141783       2.48174697      -1.04366060        8 
C       3.26926573       2.72007551       0.03803767        6 
C      -3.11237173       2.80770736       0.47684560        6 
C      -1.10474783      -1.20273602      -0.01433997        6 
C      -0.73085255      -2.35057554      -0.98923637        6 
C       0.81457616      -2.39078119      -0.84558544        6 
C       1.06549689      -1.16644024       0.06916073        6 
O      -0.05798561      -1.24823329       0.96402272        8 
H      -1.29786653       0.23711173      -1.68700188        1 
H       1.00806958      -0.13781686      -1.83758117        1 
H       2.67192056       3.40210493       0.64402124        1 
H      -2.45293058       3.67478466       0.53365449        1 
H      -1.19194748      -3.28352298      -0.66137905        1 
H      -1.07631474      -2.15138959      -2.00385290        1 
H       1.14075530      -3.29544334      -0.32946557        1 
H       1.35547444      -2.32842332      -1.78951029        1 
H       4.22199019       2.50911156       0.51895891        1 
H       3.42564132       3.15554187      -0.94968075        1 
H      -3.33396606       2.45811569       1.48704086        1 
H      -4.03033689       3.05705184      -0.05112758        1 
C      -2.44569106      -1.36012182       0.67278890        6 
C       2.34174023      -1.23460044       0.87808418        6 
O       3.42132157      -1.39158293      -0.02718124        8 
H       2.27416959      -2.10168935       1.55128338        1 
H       2.46326483      -0.33265445       1.48421732        1 
C       4.68147051      -1.22721795       0.58847052        6 
H       5.43881681      -1.36029149      -0.18475901        1 
H       4.84465441      -1.97224485       1.38050772        1 
H       4.78199232      -0.22331595       1.02297780        1 
O      -3.44114894      -1.43597821      -0.32994917        8 
H      -2.63533386      -0.51870987       1.35218521        1 
H      -2.42514163      -2.27914998       1.27677033        1 
C      -4.75387756      -1.44000229       0.19535056        6 
H      -5.43853155      -1.50854408      -0.65010463        1 
H      -4.96189609      -0.51604101       0.75264792        1 
H      -4.91766982      -2.29898744       0.86143819        1 
