43
Lattice="0.0 0.0 0.0 0.0 0.0 0.0 0.0 0.0 0.0" Properties=species:S:1:pos:R:3:Z:I:1 pbc="F F F"
C      -0.84052669      -0.10838418       0.74932275        6 
C       0.72329686       0.06572545       0.83822194        6 
C      -1.23315509      -1.40643501       0.02587939        6 
C       1.51482847      -1.21907308       1.03259849        6 
O      -2.18981388      -1.25883450      -0.90839638        8 
O      -0.77228130      -2.48743350       0.29835907        8 
O       2.25257252      -1.58815888      -0.03181236        8 
O       1.40202311      -1.89081154       2.02605312        8 
C       2.88333689      -2.87818874       0.07132935        6 
C      -2.60845029      -2.46333600      -1.57550372        6 
C      -1.16558601       1.22058926      -0.00055606        6 
C      -0.66816860       2.41806221       0.87533953        6 
C       0.83007016       2.50843109       0.48950173        6 
C       0.99599807       1.16705683      -0.25235158        6 
O      -0.19480469       1.15413326      -1.06662882        8 
H      -1.28667915      -0.16224069       1.74228063        1 
H       0.90057392       0.54312225       1.80448338        1 
H       2.12789162      -3.64802950       0.23243854        1 
H      -3.04531640      -3.16285428      -0.86154191        1 
H      -1.21386984       3.32680267       0.62187909        1 
H      -0.82795907       2.22932093       1.93805966        1 
H       1.01460936       3.32992189      -0.20585462        1 
H       1.50760695       2.61040679       1.33670458        1 
H       3.39352921      -3.02792534      -0.87831936        1 
H       3.59738690      -2.89105092       0.89617871        1 
H      -1.76135947      -2.93782560      -2.07210364        1 
H      -3.35086877      -2.14512356      -2.30478629        1 
C      -2.55512665       1.46390161      -0.56412454        6 
C       2.22088287       1.05444285      -1.13013078        6 
O       3.35237815       1.17712941      -0.28339651        8 
H       2.20344637       1.86464994      -1.87411690        1 
H       2.22869205       0.09483108      -1.65374843        1 
C       4.56423230       0.83692162      -0.92570027        6 
H       5.36111645       0.95221410      -0.19045231        1 
H       4.76785925       1.49771412      -1.78035268        1 
H       4.54523765      -0.20317261      -1.27791616        1 
O      -3.47354822       1.29202995       0.50329716        8 
H      -2.77609268       0.78062122      -1.38393378        1 
H      -2.59879122       2.49455918      -0.94656730        1 
C      -4.81983744       1.43977994       0.09790628        6 
H      -5.44169270       1.27927665       0.97890665        1 
H      -5.08686033       0.70214858      -0.67176401        1 
H      -5.01239402       2.44696882      -0.29818875        1 
