43
Lattice="0.0 0.0 0.0 0.0 0.0 0.0 0.0 0.0 0.0" Properties=species:S:1:pos:R:3:Z:I:1 pbc="F F F"
C      -0.93605150       0.14560822      -0.81022706        6 
C       0.60867228      -0.09419132      -0.88202582        6 
C      -1.39212643       1.41236417      -0.10534542        6 
C       1.39676130       1.20730856      -0.90848406        6 
O      -0.50630592       1.85172624       0.80875796        8 
O      -2.47939549       1.91235277      -0.26624127        8 
O       2.50537584       1.22195179      -0.15446592        8 
O       1.05896153       2.13614904      -1.60477259        8 
C       3.29142119       2.42593920      -0.22348252        6 
C      -0.87817176       3.03271246       1.53822939        6 
C      -1.35690220      -1.10321271       0.04198292        6 
C      -1.08200187      -2.38403503      -0.79068519        6 
C       0.44787055      -2.56173432      -0.60148817        6 
C       0.80894098      -1.26097072       0.15337000        6 
O      -0.32184253      -1.12685217       1.03701240        8 
H      -1.41644604       0.14231846      -1.78521082        1 
H       0.82759055      -0.50019819      -1.87438868        1 
H       2.70438017       3.28389773       0.10709411        1 
H      -1.79569297       2.86025109       2.10294304        1 
H      -1.64406227      -3.22390413      -0.38031611        1 
H      -1.38533923      -2.26300893      -1.83076518        1 
H       0.67259795      -3.42006170       0.03448377        1 
H       1.00151663      -2.67812657      -1.53299184        1 
H       4.13563463       2.25804057       0.44187605        1 
H       3.63523841       2.59861590      -1.24406686        1 
H      -1.02737129       3.86820377       0.85268447        1 
H      -0.04713548       3.23049154       2.21174506        1 
C      -2.71787697      -1.06529130       0.70539634        6 
C       2.07175030      -1.34563106       0.98144363        6 
O       3.14327779      -1.64622927       0.10358697        8 
H       1.94458929      -2.14800790       1.72267852        1 
H       2.24835669      -0.40604390       1.51205212        1 
C       4.40770993      -1.53839717       0.72349518        6 
H       5.15848826      -1.78068615      -0.02926524        1 
H       4.50606168      -2.23935987       1.56482059        1 
H       4.58260813      -0.51848289       1.09253216        1 
O      -3.68726145      -1.15106040      -0.32105780        8 
H      -2.84557619      -0.14554596       1.28878316        1 
H      -2.79891369      -1.91740151       1.39631310        1 
C      -4.98740880      -0.78391936       0.10369661        6 
H      -5.64715283      -0.89752927      -0.75655868        1 
H      -5.00899521       0.26059132       0.43886570        1 
H      -5.34295644      -1.43346372       0.91625283        1 
