43
Lattice="0.0 0.0 0.0 0.0 0.0 0.0 0.0 0.0 0.0" Properties=species:S:1:pos:R:3:Z:I:1 pbc="F F F"
C      -0.86592480      -0.05087290      -0.72832738        6 
C       0.70839172      -0.02649414      -0.86336771        6 
C      -1.46395515       1.20532510      -0.10978116        6 
C       1.37828210       1.27889343      -0.48122991        6 
O      -1.19648672       2.25650304      -0.91804115        8 
O      -2.12386395       1.30179134       0.89272227        8 
O       1.21213269       1.56787740       0.82863568        8 
O       1.96446955       1.99767978      -1.25018566        8 
C       1.75865279       2.82028633       1.27383473        6 
C      -1.70059773       3.53358168      -0.49292474        6 
C      -1.07342684      -1.38407672       0.04692764        6 
C      -0.72028469      -2.54737559      -0.92461347        6 
C       0.83112181      -2.52304673      -0.90263887        6 
C       1.09342783      -1.28977222      -0.00847697        6 
O       0.03757942      -1.38137525       0.95744077        8 
H      -1.30896385      -0.11152866      -1.72290738        1 
H       0.99558608      -0.17995608      -1.90072574        1 
H       1.35202893       3.64330644       0.68438033        1 
H      -1.34675527       3.76885736       0.51194215        1 
H      -1.11342063      -3.48677387      -0.53318080        1 
H      -1.14666068      -2.39798106      -1.91682171        1 
H       1.23763183      -3.41382299      -0.41978945        1 
H       1.29026773      -2.43049362      -1.88665191        1 
H       1.46535543       2.90968698       2.31739304        1 
H       2.84593642       2.81899726       1.17713625        1 
H      -2.79197594       3.53111077      -0.49499685        1 
H      -1.31712209       4.25040302      -1.21551728        1 
C      -2.36882561      -1.57974694       0.80884660        6 
C       2.42830559      -1.26428009       0.70569373        6 
O       3.42934825      -1.05301337      -0.27404047        8 
H       2.58010418      -2.22238445       1.22359908        1 
H       2.43457227      -0.46496028       1.45590497        1 
C       4.72189816      -0.88757906       0.27581040        6 
H       5.40717316      -0.72919764      -0.55674203        1 
H       5.03650036      -1.77795847       0.83786363        1 
H       4.76201056      -0.01620457       0.94404262        1 
O      -3.42600762      -1.44551945      -0.12937804        8 
H      -2.45495619      -0.83769540       1.60476982        1 
H      -2.37175950      -2.58593897       1.25321560        1 
C      -4.70285133      -1.44417520       0.48056252        6 
H      -5.43986224      -1.33427958      -0.31554107        1 
H      -4.80267542      -0.60846303       1.18516571        1 
H      -4.89273163      -2.38574437       1.01546375        1 
