43
Lattice="0.0 0.0 0.0 0.0 0.0 0.0 0.0 0.0 0.0" Properties=species:S:1:pos:R:3:Z:I:1 pbc="F F F"
C      -0.82338087       0.13347294      -0.72851891        6 
C       0.73283076       0.10291593      -0.64985291        6 
C      -1.56247050       1.44324434      -0.50083122        6 
C       1.36602614       1.11235215       0.29389111        6 
O      -0.73714832       2.50517788      -0.45548014        8 
O      -2.76436138       1.55352508      -0.54793541        8 
O       2.44407639       1.68247248      -0.29111697        8 
O       1.01847503       1.35729555       1.42118806        8 
C       3.16913909       2.62321326       0.51725316        6 
C      -1.36215792       3.79682701      -0.35776318        6 
C      -1.23751217      -1.14691386       0.09415183        6 
C      -1.10613203      -2.34708136      -0.86867744        6 
C       0.43187862      -2.38466431      -1.07998709        6 
C       0.92090271      -1.33461518      -0.04448412        6 
O      -0.10577471      -1.35505104       0.95609688        8 
H      -1.09378173      -0.06298262      -1.77099963        1 
H       1.19985878       0.19804263      -1.62678948        1 
H       3.58684714       2.13099861       1.39765727        1 
H      -1.95054099       3.86296658       0.55819724        1 
H      -1.46159248      -3.24873313      -0.36747028        1 
H      -1.68293854      -2.21939373      -1.78412642        1 
H       0.85080332      -3.36441459      -0.84640062        1 
H       0.74161044      -2.12903976      -2.09379898        1 
H       3.96471909       3.00220130      -0.12068890        1 
H       2.51491083       3.43414514       0.84183563        1 
H      -2.01029672       3.97317860      -1.21750864        1 
H      -0.54290754       4.51195627      -0.33796066        1 
C      -2.51059866      -1.10684807       0.91316986        6 
C       2.25976037      -1.64813017       0.59094325        6 
O       3.22924212      -1.66642671      -0.44179678        8 
H       2.19441419      -2.62818291       1.08546646        1 
H       2.51397453      -0.90330978       1.35606318        1 
C       4.54304214      -1.87490021       0.03804298        6 
H       5.20698192      -1.86093965      -0.82642872        1 
H       4.63579202      -2.84442313       0.54753357        1 
H       4.84441061      -1.08107570       0.73583913        1 
O      -3.59758651      -1.33614621       0.03522367        8 
H      -2.61386125      -0.14409287       1.42524308        1 
H      -2.45577673      -1.89530835       1.67790665        1 
C      -4.83938627      -0.90473289       0.55891467        6 
H      -5.59913147      -1.14380487      -0.18575224        1 
H      -4.83331971       0.17792264       0.73292581        1 
H      -5.08310039      -1.42452615       1.49675621        1 
