43
Lattice="0.0 0.0 0.0 0.0 0.0 0.0 0.0 0.0 0.0" Properties=species:S:1:pos:R:3:Z:I:1 pbc="F F F"
C      -0.75927847      -0.00330696       0.82474684        6 
C       0.81767503       0.07740447       0.89710934        6 
C      -1.28782315      -1.37369951       0.40439139        6 
C       1.57501051      -1.22696217       0.71845444        6 
O      -2.38663609      -1.33013255      -0.36768042        8 
O      -0.80734717      -2.41264561       0.78683116        8 
O       1.59881887      -1.63743726      -0.56833153        8 
O       2.08409653      -1.83577806       1.62347479        8 
C       2.17634649      -2.93377503      -0.79610402        6 
C      -2.96416554      -2.60289421      -0.71476781        6 
C      -1.05862965       1.26285897      -0.04128622        6 
C      -0.66906390       2.50772177       0.81578944        6 
C       0.86912003       2.55606177       0.63596630        6 
C       1.11163519       1.23657490      -0.12512779        6 
O      -0.01144361       1.19809260      -1.02206382        8 
H      -1.17199030       0.12882915       1.82803331        1 
H       1.10793893       0.39925568       1.89500595        1 
H       1.61046606      -3.69185053      -0.25274448        1 
H      -3.29227567      -3.12921074       0.18261562        1 
H      -1.15309736       3.40097901       0.41923307        1 
H      -0.98319331       2.39908715       1.85436205        1 
H       1.17118818       3.39812194       0.00971522        1 
H       1.42718525       2.60933617       1.57044720        1 
H       2.10844761      -3.09781847      -1.86993435        1 
H       3.21720819      -2.95423263      -0.46892052        1 
H      -2.23890387      -3.21809998      -1.24845026        1 
H      -3.81298211      -2.36839275      -1.35367504        1 
C      -2.39358505       1.42454120      -0.74104140        6 
C       2.39641094       1.16343252      -0.92482240        6 
O       3.45839328       0.99550539      -0.00145745        8 
H       2.52077539       2.09299147      -1.49918062        1 
H       2.34954612       0.32284662      -1.62368084        1 
C       4.70665537       0.76426336      -0.62512485        6 
H       5.44080280       0.62504228       0.16839151        1 
H       5.00800213       1.61687228      -1.24967581        1 
H       4.67727402      -0.13822091      -1.25114651        1 
O      -3.39868772       1.44182387       0.25872156        8 
H      -2.56163837       0.61540405      -1.45381114        1 
H      -2.37908685       2.37792506      -1.28975392        1 
C      -4.70648909       1.42686975      -0.27593166        6 
H      -5.39971275       1.44039617       0.56556499        1 
H      -4.88041109       0.52025029      -0.87195388        1 
H      -4.89379041       2.30642090      -0.90838632        1 
