43
Lattice="0.0 0.0 0.0 0.0 0.0 0.0 0.0 0.0 0.0" Properties=species:S:1:pos:R:3:Z:I:1 pbc="F F F"
C      -0.80555737      -0.00025460      -0.69391564        6 
C       0.75926308       0.23493283      -0.64261625        6 
C      -1.68333605       1.21659982      -0.45719519        6 
C       1.13338498       1.47426815       0.17751445        6 
O      -1.55433887       2.05131261      -1.50525967        8 
O      -2.50416293       1.37191015       0.41458143        8 
O       1.81922283       1.21880392       1.30381246        8 
O       0.81329524       2.59503210      -0.14023336        8 
C       2.14607459       2.36275892       2.11473918        6 
C      -2.26802930       3.29527645      -1.42381015        6 
C      -0.96623913      -1.30560986       0.16314552        6 
C      -0.71248639      -2.47096799      -0.81513948        6 
C       0.78061628      -2.23246729      -1.15120890        6 
C       1.18859407      -1.15564977      -0.09415339        6 
O       0.23111879      -1.34527930       0.96346793        8 
H      -1.04270267      -0.25219533      -1.72894417        1 
H       1.14790068       0.41996921      -1.64335278        1 
H       1.23641830       2.87640939       2.42790769        1 
H      -1.88095685       3.89104457      -0.59591980        1 
H      -0.85830615      -3.41676362      -0.28932954        1 
H      -1.37702215      -2.45241924      -1.67836586        1 
H       1.37923644      -3.13467660      -1.02349734        1 
H       0.94255615      -1.87685565      -2.17001084        1 
H       2.67647580       1.96129423       2.97554144        1 
H       2.77914922       3.05618879       1.55939086        1 
H      -3.33553220       3.11861038      -1.28457721        1 
H      -2.08058623       3.79845915      -2.36979522        1 
C      -2.18326904      -1.45576896       1.04907967        6 
C       2.60251385      -1.34640786       0.42505286        6 
O       3.48484794      -0.90228595      -0.59502551        8 
H       2.76144267      -2.41474449       0.63180907        1 
H       2.76069858      -0.78660357       1.34802065        1 
C       4.84694990      -1.03905066      -0.24020494        6 
H       5.43791340      -0.66485207      -1.07649345        1 
H       5.10963500      -2.09047900      -0.05702033        1 
H       5.08554495      -0.45504257       0.65953343        1 
O      -3.31015892      -1.55721373       0.19306505        8 
H      -2.27792361      -0.59689703       1.71780445        1 
H      -2.06920898      -2.36866571       1.65198881        1 
C      -4.53719977      -1.33818829       0.86487698        6 
H      -5.33036464      -1.44335118       0.12388020        1 
H      -4.57179160      -0.32945764       1.29384769        1 
H      -4.69535693      -2.07741088       1.66310579        1 
