43
Lattice="0.0 0.0 0.0 0.0 0.0 0.0 0.0 0.0 0.0" Properties=species:S:1:pos:R:3:Z:I:1 pbc="F F F"
C      -0.79405049      -0.08414524       0.82279194        6 
C       0.76587463       0.03266960       0.83564841        6 
C      -1.41738543      -1.29791579       0.15229835        6 
C       1.63288494      -1.20754127       0.67575680        6 
O      -1.02297519      -1.45538678      -1.12660683        8 
O      -2.25473189      -1.99231229       0.67655806        8 
O       0.92861896      -2.34811186       0.56681065        8 
O       2.83637726      -1.19300498       0.78058048        8 
C       1.68241737      -3.57352249       0.55046212        6 
C      -1.56312370      -2.59271254      -1.81380672        6 
C      -1.14344419       1.22704425       0.03529263        6 
C      -0.75883499       2.45029066       0.91244436        6 
C       0.77557250       2.53337233       0.68695080        6 
C       1.01952195       1.25030844      -0.13792840        6 
O      -0.13751143       1.23213512      -0.98794275        8 
H      -1.20639436      -0.06675457       1.82839919        1 
H       1.06384264       0.35896711       1.83574739        1 
H       2.29470275      -3.65684901       1.44919136        1 
H      -2.65012335      -2.52302121      -1.88682422        1 
H      -1.27121694       3.34371985       0.55271185        1 
H      -1.04215614       2.30708076       1.95558908        1 
H       1.04577197       3.40411714       0.08737900        1 
H       1.36379408       2.56084134       1.60290436        1 
H       0.93882149      -4.36661723       0.51618891        1 
H       2.32707990      -3.61050720      -0.32902269        1 
H      -1.30183720      -3.51375176      -1.28921059        1 
H      -1.11248927      -2.57504168      -2.80404850        1 
C      -2.52403401       1.29993692      -0.58518695        6 
C       2.27668113       1.24927210      -0.98257636        6 
O       3.34998370       1.67292968      -0.16448992        8 
H       2.13059904       1.94225550      -1.82404761        1 
H       2.46477751       0.25138214      -1.39607760        1 
C       4.62013672       1.30622008      -0.66959401        6 
H       5.36366489       1.69969664       0.02393230        1 
H       4.79686926       1.73730281      -1.66546525        1 
H       4.71839091       0.21519409      -0.72095043        1 
O      -3.45939796       1.31903010       0.47731771        8 
H      -2.69844648       0.44201814      -1.24584790        1 
H      -2.59807128       2.21335507      -1.19333022        1 
C      -4.79903700       1.17928479       0.04376790        6 
H      -5.42684633       1.19744689       0.93452414        1 
H      -4.94825486       0.22565028      -0.48049586        1 
H      -5.09441509       2.00260138      -0.62193067        1 
