43
Lattice="0.0 0.0 0.0 0.0 0.0 0.0 0.0 0.0 0.0" Properties=species:S:1:pos:R:3:Z:I:1 pbc="F F F"
C      -0.68457566      -0.13448557       0.78384538        6 
C       0.84942808      -0.29940301       0.67652277        6 
C      -1.48577850      -1.42333598       0.76408969        6 
C       1.27655849      -1.31286084      -0.37713232        6 
O      -2.81017060      -1.16946247       0.72604007        8 
O      -1.02701828      -2.53496298       0.84038409        8 
O       2.56254666      -1.68737482      -0.17539640        8 
O       0.59291018      -1.75634040      -1.26207944        8 
C       3.07691222      -2.66398647      -1.09776348        6 
C      -3.67511941      -2.31832542       0.75979008        6 
C      -0.97101811       1.11151611      -0.15015674        6 
C      -0.80117124       2.34710284       0.75623033        6 
C       0.70951400       2.22471621       1.10815290        6 
C       1.18777438       1.12827804       0.11039338        6 
O       0.22444670       1.20786211      -0.95075197        8 
H      -0.88591924       0.21158176       1.80461682        1 
H       1.34618127      -0.50975062       1.62045026        1 
H       3.03806221      -2.28544107      -2.12093604        1 
H      -3.51789059      -2.89132525       1.67503775        1 
H      -1.00656160       3.25172886       0.18120642        1 
H      -1.46466482       2.33399294       1.62055915        1 
H       1.24906253       3.15598203       0.93244885        1 
H       0.89097247       1.93267895       2.14332218        1 
H       4.10642036      -2.83820014      -0.79178399        1 
H       2.49652948      -3.58591443      -1.03656079        1 
H      -3.48794981      -2.96101797      -0.10193534        1 
H      -4.68627184      -1.91784642       0.72888506        1 
C      -2.17068184       1.10379947      -1.07479172        6 
C       2.58113086       1.34720473      -0.44067532        6 
O       3.48304472       1.27669922       0.64780104        8 
H       2.62279412       2.33510835      -0.92226722        1 
H       2.82508496       0.59355392      -1.19851751        1 
C       4.83563111       1.20651448       0.24147274        6 
H       5.44092713       1.15630381       1.14674514        1 
H       5.12957900       2.09316412      -0.33794452        1 
H       5.01762197       0.30839435      -0.36424912        1 
O      -3.30846126       1.53115424      -0.34879933        8 
H      -2.32306908       0.10307213      -1.49568922        1 
H      -1.96135317       1.79403425      -1.90464918        1 
C      -4.51674043       1.31617964      -1.04639958        6 
H      -5.32521092       1.67571656      -0.40899463        1 
H      -4.67007217       0.24827747      -1.25577612        1 
H      -4.53967104       1.86741061      -1.99767923        1 
