43
Lattice="0.0 0.0 0.0 0.0 0.0 0.0 0.0 0.0 0.0" Properties=species:S:1:pos:R:3:Z:I:1 pbc="F F F"
C      -0.83419030      -0.19192771       0.73987040        6 
C       0.71081006      -0.00760938       0.84996314        6 
C      -1.19570426      -1.34407260      -0.19664964        6 
C       1.45887648      -1.33084806       0.94844575        6 
O      -2.53230249      -1.44684027      -0.35462660        8 
O      -0.42570581      -2.14673204      -0.66203933        8 
O       2.52124525      -1.45340432       0.13980178        8 
O       1.11768956      -2.18183733       1.73542405        8 
C       3.20017005      -2.72116434       0.19903373        6 
C      -2.98836140      -2.55211632      -1.15660739        6 
C      -1.17977032       1.18152142       0.06586369        6 
C      -0.71391754       2.34364697       0.99457170        6 
C       0.79377377       2.45570684       0.64406622        6 
C       0.98492153       1.15967993      -0.16960847        6 
O      -0.20219385       1.18141195      -0.99336460        8 
H      -1.33217817      -0.34226281       1.69606023        1 
H       0.89824130       0.40055133       1.84788233        1 
H       2.51857640      -3.52243336      -0.08940627        1 
H      -2.64271876      -3.49680696      -0.73514150        1 
H      -1.26061068       3.25736392       0.76053449        1 
H      -0.89755434       2.11387395       2.04498113        1 
H       0.99298740       3.31808562       0.00461668        1 
H       1.45249125       2.51026604       1.51007017        1 
H       4.02321169      -2.64185668      -0.50839875        1 
H       3.57580719      -2.90881754       1.20569235        1 
H      -2.61957949      -2.45939657      -2.17963880        1 
H      -4.07462229      -2.49579137      -1.13473853        1 
C      -2.56090564       1.40431339      -0.51765132        6 
C       2.20703388       1.12506315      -1.05827403        6 
O       3.33875904       1.35273387      -0.23486384        8 
H       2.11201149       1.92070543      -1.81184493        1 
H       2.28085859       0.16209885      -1.57107947        1 
C       4.56079413       1.07937708      -0.88798391        6 
H       5.35938499       1.27421067      -0.17144833        1 
H       4.70368208       1.72547913      -1.76624808        1 
H       4.61129812       0.03033191      -1.20858019        1 
O      -3.48509592       1.37045369       0.55458324        8 
H      -2.80383763       0.64583422      -1.26630178        1 
H      -2.57145836       2.38843412      -1.00946417        1 
C      -4.83099173       1.38878368       0.12330397        6 
H      -5.45562569       1.35351794       1.01614613        1 
H      -5.05549494       0.51838761      -0.50842392        1 
H      -5.06190108       2.30448683      -0.43964026        1 
