43
Lattice="0.0 0.0 0.0 0.0 0.0 0.0 0.0 0.0 0.0" Properties=species:S:1:pos:R:3:Z:I:1 pbc="F F F"
C      -0.67661896      -0.13637355       0.78774617        6 
C       0.85112386      -0.33932144       0.67878352        6 
C      -1.51617135      -1.40025891       0.82777620        6 
C       1.24017190      -1.34467613      -0.40080020        6 
O      -2.83242781      -1.10478758       0.78230894        8 
O      -1.09309085      -2.52157043       0.94867521        8 
O       2.56057076      -1.63854768      -0.31914202        8 
O       0.50010871      -1.87362501      -1.18772594        8 
C       3.03985177      -2.61440015      -1.26135064        6 
C      -3.73326987      -2.22320294       0.86485720        6 
C      -0.94143712       1.09568785      -0.16994682        6 
C      -0.77659344       2.34057853       0.72273888        6 
C       0.72158511       2.19427628       1.11629495        6 
C       1.21419590       1.09237412       0.12921726        6 
O       0.26967474       1.17485420      -0.95130015        8 
H      -0.85707709       0.24225345       1.80153602        1 
H       1.34793809      -0.57998256       1.61566279        1 
H       2.91725816      -2.25308735      -2.28427322        1 
H      -3.60177309      -2.75396358       1.80923040        1 
H      -0.94864354       3.24065133       0.12990182        1 
H      -1.46398179       2.35010977       1.56826138        1 
H       1.27950877       3.11774251       0.95816595        1 
H       0.87095416       1.89875311       2.15565839        1 
H       4.09372414      -2.75046605      -1.02729078        1 
H       2.49560532      -3.55289718      -1.14713181        1 
H      -3.55872791      -2.91389850       0.03848533        1 
H      -4.73113342      -1.79380811       0.80415050        1 
C      -2.12479089       1.07763682      -1.11555099        6 
C       2.61665388       1.32170990      -0.39450621        6 
O       3.50076576       1.22674474       0.70700320        8 
H       2.66354161       2.32230095      -0.84911747        1 
H       2.87536130       0.58802431      -1.16489103        1 
C       4.86016713       1.18353266       0.32060439        6 
H       5.45225774       1.11465286       1.23340131        1 
H       5.15238066       2.08970905      -0.22878802        1 
H       5.06225535       0.30543463      -0.30767673        1 
O      -3.26846192       1.54772919      -0.42604603        8 
H      -2.28625664       0.06564220      -1.50522201        1 
H      -1.88899357       1.73623039      -1.96377641        1 
C      -4.46720915       1.32798307      -1.13829835        6 
H      -5.28167323       1.71556678      -0.52541422        1 
H      -4.63100887       0.25656981      -1.32014981        1 
H      -4.46699149       1.85223995      -2.10502025        1 
