43
Lattice="0.0 0.0 0.0 0.0 0.0 0.0 0.0 0.0 0.0" Properties=species:S:1:pos:R:3:Z:I:1 pbc="F F F"
C      -0.67497847      -0.04097824      -0.70623966        6 
C       0.89494903       0.09925591      -0.63197885        6 
C      -1.44630386       1.12733572      -0.13123816        6 
C       1.34483678       1.26041928       0.23992662        6 
O      -2.04692975       1.82726667      -1.11644710        8 
O      -1.52943253       1.42272665       1.03669076        8 
O       1.26195694       2.40717027      -0.47804359        8 
O       1.67175584       1.23116900       1.39675973        8 
C       1.50244906       3.62072160       0.25704047        6 
C      -2.81910721       2.96392795      -0.69493006        6 
C      -0.89027181      -1.41815585       0.02290896        6 
C      -0.59297642      -2.51257055      -1.02540711        6 
C       0.94479496      -2.35323936      -1.18313905        6 
C       1.27151995      -1.30488821      -0.08005337        6 
O       0.24084484      -1.52836796       0.89480144        8 
H      -0.97731837      -0.12642649      -1.74728642        1 
H       1.30463341       0.26507974      -1.62656905        1 
H       2.51080564       3.62393199       0.67326033        1 
H      -2.18982776       3.67762062      -0.16060429        1 
H      -0.84777303      -3.48858954      -0.60749824        1 
H      -1.15491302      -2.38002207      -1.94987186        1 
H       1.46995984      -3.28741658      -0.97951875        1 
H       1.24877002      -2.01190274      -2.17355594        1 
H       1.38404444       4.42566715      -0.46527610        1 
H       0.77738838       3.71516425       1.06720131        1 
H      -3.63526050       2.64785396      -0.04303386        1 
H      -3.20888794       3.40573925      -1.60934240        1 
C      -2.16270061      -1.57125779       0.82749421        6 
C       2.63543409      -1.45139394       0.56450526        6 
O       3.59355151      -0.99109468      -0.37843050        8 
H       2.80989760      -2.50914679       0.80884622        1 
H       2.67796943      -0.86279016       1.48418735        1 
C       4.91084976      -0.98159032       0.13920722        6 
H       5.56291966      -0.59771988      -0.64588096        1 
H       5.24015313      -1.99318089       0.41560130        1 
H       4.98492289      -0.33254275       1.02197718        1 
O      -3.25028111      -1.29039742      -0.04119996        8 
H      -2.14918295      -0.87389887       1.67163553        1 
H      -2.22844660      -2.59705955       1.21669301        1 
C      -4.50048758      -1.29956701       0.62273440        6 
H      -5.26054586      -1.05556733      -0.11991248        1 
H      -4.52721019      -0.55400185       1.42890394        1 
H      -4.71997210      -2.28836555       1.04892296        1 
