43
Lattice="0.0 0.0 0.0 0.0 0.0 0.0 0.0 0.0 0.0" Properties=species:S:1:pos:R:3:Z:I:1 pbc="F F F"
C      -0.80940520      -0.06879708      -0.75265079        6 
C       0.75893060       0.06692177      -0.80546137        6 
C      -1.53841311       1.17647119      -0.27383286        6 
C       1.38110141       1.31591334      -0.21264364        6 
O      -1.35534243       2.15890929      -1.19046898        8 
O      -2.19827176       1.32476351       0.72130832        8 
O       0.77430321       1.70576253       0.92397537        8 
O       2.35481490       1.86602289      -0.66763561        8 
C       1.31436488       2.86580268       1.57712466        6 
C      -1.95051971       3.42933907      -0.87860797        6 
C      -0.98001724      -1.37718798       0.08225853        6 
C      -0.62370571      -2.56136396      -0.85382863        6 
C       0.92145375      -2.44370583      -0.93524971        6 
C       1.18155914      -1.22650748      -0.01498781        6 
O       0.15050347      -1.34254351       0.97206921        8 
H      -1.17582663      -0.23066789      -1.76727980        1 
H       1.12874530       0.02197641      -1.82664086        1 
H       1.31055684       3.72183774       0.90040369        1 
H      -1.54967366       3.81599647       0.06006408        1 
H      -0.92727611      -3.49840197      -0.38390689        1 
H      -1.12617736      -2.49406520      -1.81855673        1 
H       1.41509338      -3.32633230      -0.52493030        1 
H       1.30435967      -2.28571069      -1.94312184        1 
H       0.66434462       3.04352303       2.43079488        1 
H       2.33785928       2.67631729       1.90529343        1 
H      -3.03383430       3.33262986      -0.79212157        1 
H      -1.68856056       4.08446852      -1.70650154        1 
C      -2.25723842      -1.56513644       0.87400911        6 
C       2.54010012      -1.20374894       0.65346342        6 
O       3.51460735      -1.22313312      -0.37094854        8 
H       2.63338836      -2.08419312       1.30575544        1 
H       2.64740245      -0.31057277       1.28350578        1 
C       4.81492189      -0.90095657       0.08594160        6 
H       5.47936052      -0.95864270      -0.77601711        1 
H       5.15864612      -1.60886645       0.85349081        1 
H       4.84675214       0.11722601       0.49519380        1 
O      -3.32823495      -1.52162623      -0.05759285        8 
H      -2.35780398      -0.77740250       1.62326169        1 
H      -2.22329259      -2.54147224       1.37940290        1 
C      -4.59771224      -1.46914020       0.56561124        6 
H      -5.34446891      -1.43653682      -0.22843323        1 
H      -4.69262624      -0.57174663       1.19029941        1 
H      -4.77626510      -2.35817070       1.18716855        1 
