43
Lattice="0.0 0.0 0.0 0.0 0.0 0.0 0.0 0.0 0.0" Properties=species:S:1:pos:R:3:Z:I:1 pbc="F F F"
C      -0.91784311       0.12828045      -0.64227706        6 
C       0.64804453      -0.02482391      -0.72477532        6 
C      -1.36420565       1.34373036       0.15697539        6 
C       1.44473513       1.10581130      -0.11213420        6 
O      -1.06560300       2.46057110      -0.54967710        8 
O      -1.90355510       1.36922638       1.23136573        8 
O       2.29172379       1.63941671      -1.01387082        8 
O       1.34886271       1.50135768       1.02556624        8 
C       3.12565386       2.70760897      -0.53560223        6 
C      -1.30074376       3.70860468       0.12654063        6 
C      -1.31779689      -1.25476432      -0.06053160        6 
C      -1.01977449      -2.32950593      -1.14690810        6 
C       0.51766821      -2.50643173      -1.01072195        6 
C       0.84336327      -1.40533839       0.02028748        6 
O      -0.27895432      -1.47772216       0.90629581        8 
H      -1.32348620       0.26376533      -1.64505030        1 
H       0.96510869      -0.11794761      -1.76012317        1 
H       3.76248621       2.35850919       0.27900224        1 
H      -0.71523826       3.74855805       1.04632138        1 
H      -1.55211029      -3.25240775      -0.91315162        1 
H      -1.33753030      -2.00732132      -2.13912627        1 
H       0.76726228      -3.48204825      -0.58856956        1 
H       1.06816989      -2.38811611      -1.94385025        1 
H       3.72860357       3.00965445      -1.38908601        1 
H       2.51570873       3.54029335      -0.18134348        1 
H      -2.35943879       3.82263104       0.36413794        1 
H      -0.98038868       4.48047152      -0.57021610        1 
C      -2.67658938      -1.37945526       0.59894003        6 
C       2.11277478      -1.57750001       0.82605446        6 
O       3.21035090      -1.36603616      -0.04691474        8 
H       2.13801932      -2.59143945       1.24978255        1 
H       2.12356966      -0.85657936       1.65193500        1 
C       4.45951867      -1.40679655       0.61619913        6 
H       5.22696434      -1.21193279      -0.13322909        1 
H       4.64162859      -2.39120666       1.06934009        1 
H       4.51795806      -0.64151325       1.40241820        1 
O      -3.64346082      -0.97941803      -0.36226648        8 
H      -2.72151881      -0.74339876       1.48504213        1 
H      -2.83691328      -2.42602549       0.89651011        1 
C      -4.95327441      -0.92283004       0.17114894        6 
H      -5.61343384      -0.58850127      -0.62977255        1 
H      -5.00963548      -0.21349018       1.00736177        1 
H      -5.28645637      -1.91040440       0.52064956        1 
