43
Lattice="0.0 0.0 0.0 0.0 0.0 0.0 0.0 0.0 0.0" Properties=species:S:1:pos:R:3:Z:I:1 pbc="F F F"
C      -0.72204497       0.00939552       0.84407753        6 
C       0.85275906       0.03588913       0.75162304        6 
C      -1.39430600      -1.26200567       0.36449856        6 
C       1.50013413      -1.24621237       0.24701887        6 
O      -1.11882455      -1.51933282      -0.93508766        8 
O      -2.08625916      -1.97271680       1.04813843        8 
O       1.00438895      -2.29673779       0.93826005        8 
O       2.39103079      -1.35834171      -0.55613441        8 
C       1.52539980      -3.59273730       0.59863000        6 
C      -1.67072570      -2.73309678      -1.46986411        6 
C      -1.08081662       1.29400689       0.01525301        6 
C      -0.77655979       2.51508038       0.91582913        6 
C       0.77456400       2.53665871       0.87979427        6 
C       1.08757815       1.34440258      -0.06579250        6 
O      -0.03491306       1.35597822      -0.96335725        8 
H      -1.05008578       0.12102694       1.87438822        1 
H       1.26038456       0.15318492       1.75813882        1 
H       2.58973869      -3.65004103       0.83199768        1 
H      -2.76156535      -2.69312848      -1.46711220        1 
H      -1.20047603       3.41558767       0.46758486        1 
H      -1.19667695       2.40644565       1.91543186        1 
H       1.15200665       3.46035861       0.43868642        1 
H       1.24109001       2.42108332       1.85799136        1 
H       0.96005262      -4.29753775       1.20422801        1 
H       1.38097973      -3.79366094      -0.46422364        1 
H      -1.34645379      -3.59151470      -0.87949126        1 
H      -1.29284933      -2.79979148      -2.48787302        1 
C      -2.42896055       1.31617815      -0.67499343        6 
C       2.37497140       1.49553444      -0.84921780        6 
O       3.43781674       1.46409217       0.09043576        8 
H       2.35393784       2.45975173      -1.37825827        1 
H       2.47349698       0.69107986      -1.58041939        1 
C       4.70422820       1.28046188      -0.51480118        6 
H       5.44446377       1.27536647       0.28604775        1 
H       4.93876982       2.09815298      -1.21125620        1 
H       4.74552962       0.32586025      -1.05360277        1 
O      -3.41972924       1.20937222       0.33124655        8 
H      -2.50237863       0.48914142      -1.39144452        1 
H      -2.53220733       2.25860338      -1.23235622        1 
C      -4.72961271       1.08009768      -0.18655528        6 
H      -5.40357568       0.98865815       0.66503147        1 
H      -4.82228092       0.18330657      -0.81450543        1 
H      -5.01572049       1.95951825      -0.78045522        1 
