43
Lattice="0.0 0.0 0.0 0.0 0.0 0.0 0.0 0.0 0.0" Properties=species:S:1:pos:R:3:Z:I:1 pbc="F F F"
C      -0.68501365       0.06582342      -0.66714380        6 
C       0.87823453       0.12595158      -0.70808238        6 
C      -1.32120356       1.11846407       0.21986994        6 
C       1.50060292       1.45185831      -0.29771925        6 
O      -2.40917824       1.64829051      -0.37685588        8 
O      -0.96317431       1.41665813       1.33349447        8 
O       0.73914107       2.47252476      -0.75533138        8 
O       2.58088234       1.62017227       0.20827523        8 
C       1.20532966       3.79903310      -0.45355477        6 
C      -3.14174422       2.61420642       0.39487508        6 
C      -0.88580348      -1.35733229      -0.03530317        6 
C      -0.45220780      -2.41592260      -1.08215582        6 
C       1.09423143      -2.35116326      -0.96560152        6 
C       1.27804777      -1.19087515       0.04268696        6 
O       0.16816848      -1.40288017       0.93378598        8 
H      -1.13148013       0.13028758      -1.65588335        1 
H       1.19541351       0.03442105      -1.75136570        1 
H       2.20373562       3.95736197      -0.86302018        1 
H      -2.49804803       3.44950512       0.67520959        1 
H      -0.83866631      -3.39709050      -0.80147470        1 
H      -0.83151517      -2.18482683      -2.07777392        1 
H       1.49975062      -3.26754009      -0.53357905        1 
H       1.60720468      -2.17059071      -1.90991259        1 
H       0.48735363       4.47048821      -0.91962612        1 
H       1.22607790       3.94936054       0.62689621        1 
H      -3.54436955       2.15612043       1.30030087        1 
H      -3.94859106       2.95092680      -0.25250459        1 
C      -2.21216841      -1.63362528       0.64229092        6 
C       2.57420356      -1.22753831       0.82174353        6 
O       3.63230397      -1.20982618      -0.12215240        8 
H       2.59884148      -2.15440088       1.41359537        1 
H       2.63821439      -0.37505367       1.50250879        1 
C       4.87754124      -0.85580206       0.45129955        6 
H       5.61848297      -0.88784070      -0.34829774        1 
H       5.17239600      -1.56416056       1.23890589        1 
H       4.83868275       0.15656638       0.87017925        1 
O      -3.21406074      -1.64079674      -0.35918518        8 
H      -2.42411788      -0.87419691       1.40596296        1 
H      -2.15380688      -2.60933194       1.14613124        1 
C      -4.51673054      -1.80614290       0.16530393        6 
H      -5.20760613      -1.78807451      -0.67775483        1 
H      -4.77422886      -0.99328338       0.85889687        1 
H      -4.61899780      -2.76452037       0.69372289        1 
