43
Lattice="0.0 0.0 0.0 0.0 0.0 0.0 0.0 0.0 0.0" Properties=species:S:1:pos:R:3:Z:I:1 pbc="F F F"
C      -0.68753581       0.21944593      -0.64141333        6 
C       0.87197720       0.03792026      -0.68595989        6 
C      -1.15847409       1.37192313       0.23934635        6 
C       1.69654834       1.25769783      -0.29780422        6 
O      -2.50535716       1.41381783       0.30305190        8 
O      -0.46070886       2.21762201       0.74128177        8 
O       1.55746352       2.19267611      -1.26775550        8 
O       2.44013278       1.38414686       0.64005016        8 
C       2.18833498       3.45690579      -1.00644625        6 
C      -3.06992996       2.50947983       1.04659005        6 
C      -1.09097233      -1.19881502      -0.09896520        6 
C      -0.70423519      -2.25461390      -1.17626355        6 
C       0.81124168      -2.43792804      -0.91363758        6 
C       1.07150657      -1.30373984       0.09953520        6 
O      -0.10556290      -1.38419001       0.92931452        8 
H      -1.11358934       0.39283902      -1.63009491        1 
H       1.14945545      -0.12900896      -1.72805299        1 
H       3.26394496       3.32987890      -0.87601836        1 
H      -2.74145517       3.46290409       0.63087940        1 
H      -1.26432842      -3.17679899      -1.01852183        1 
H      -0.93299568      -1.90221683      -2.18275409        1 
H       1.01998768      -3.39822744      -0.43777505        1 
H       1.43404636      -2.35725109      -1.80414561        1 
H       1.97867052       4.07321441      -1.87847580        1 
H       1.76165562       3.90351685      -0.10689151        1 
H      -2.77159512       2.45352959       2.09473523        1 
H      -4.14770880       2.39878954       0.94816585        1 
C      -2.47000103      -1.42809269       0.48676387        6 
C       2.31201559      -1.47626803       0.94836338        6 
O       3.42330977      -1.44916083       0.06549005        8 
H       2.25342136      -2.44381065       1.46826462        1 
H       2.37837984      -0.67600764       1.68802475        1 
C       4.65144310      -1.20434388       0.72729721        6 
H       5.43179639      -1.21199918      -0.03459764        1 
H       4.87044152      -1.98562264       1.46899729        1 
H       4.63725394      -0.22729300       1.22467617        1 
O      -3.40907325      -1.33833098      -0.56849871        8 
H      -2.69596106      -0.70457657       1.27548224        1 
H      -2.48209802      -2.43404842       0.93184803        1 
C      -4.74749480      -1.38118916      -0.11790949        6 
H      -5.38682000      -1.30670091      -0.99786475        1 
H      -4.96529616      -0.54287482       0.55829825        1 
H      -4.96689897      -2.32284038       0.40560176        1 
