43
Lattice="0.0 0.0 0.0 0.0 0.0 0.0 0.0 0.0 0.0" Properties=species:S:1:pos:R:3:Z:I:1 pbc="F F F"
C      -0.65057187       0.09939916       0.86003602        6 
C       0.92251795       0.02911754       0.69846436        6 
C      -1.40792270      -1.20264937       0.68249584        6 
C       1.47018586      -1.20148785      -0.02335503        6 
O      -1.68502200      -1.47830706      -0.61179460        8 
O      -1.64563819      -1.96528396       1.58408593        8 
O       1.01988601      -2.32045275       0.57630009        8 
O       2.26706840      -1.22765235      -0.92792238        8 
C       1.47877109      -3.57134363       0.03785837        6 
C      -2.32145031      -2.74238846      -0.86000369        6 
C      -0.99617531       1.34738766      -0.02964709        6 
C      -0.73646330       2.58386673       0.85812484        6 
C       0.80769581       2.52898901       0.98459524        6 
C       1.17541643       1.38968560      -0.01456992        6 
O       0.09410319       1.42092482      -0.96246075        8 
H      -0.86005535       0.34820531       1.89929403        1 
H       1.38887210       0.00323967       1.68456684        1 
H       2.56058966      -3.66123058       0.14924210        1 
H      -3.29003340      -2.78876537      -0.35919670        1 
H      -1.05996126       3.48153166       0.32730253        1 
H      -1.26787539       2.53832492       1.80877998        1 
H       1.27287953       3.46412390       0.67066262        1 
H       1.15707933       2.31244540       1.99474790        1 
H       0.96855165      -4.33664330       0.61866328        1 
H       1.22039272      -3.64950038      -1.01947718        1 
H      -1.69568508      -3.56036857      -0.49959157        1 
H      -2.44447689      -2.79984542      -1.93969088        1 
C      -2.30954239       1.34164848      -0.78353885        6 
C       2.49769887       1.60162897      -0.72587939        6 
O       3.52238177       1.40365381       0.23637139        8 
H       2.52901795       2.62889213      -1.11787821        1 
H       2.59785430       0.90025977      -1.55493139        1 
C       4.81050211       1.31291901      -0.34299382        6 
H       5.51979376       1.16549514       0.47212547        1 
H       5.07425437       2.23368466      -0.88253128        1 
H       4.87061124       0.46323017      -1.03476125        1 
O      -3.33666239       1.05354900       0.15205193        8 
H      -2.28039712       0.58529451      -1.57305543        1 
H      -2.47005454       2.32660838      -1.24464904        1 
C      -4.59198582       0.82998561      -0.46013762        6 
H      -5.30569455       0.61717990       0.33590770        1 
H      -4.54944712      -0.02652702      -1.14731122        1 
H      -4.93033820       1.71343639      -1.01914668        1 
