43
Lattice="0.0 0.0 0.0 0.0 0.0 0.0 0.0 0.0 0.0" Properties=species:S:1:pos:R:3:Z:I:1 pbc="F F F"
C      -0.86485349      -0.07695532       0.86823764        6 
C       0.70674835      -0.00666151       0.81364452        6 
C      -1.44085189      -1.42002357       0.44040760        6 
C       1.42490848      -1.23933097       0.30141268        6 
O      -1.74781974      -1.50454313      -0.86050753        8 
O      -1.62939761      -2.31357154       1.23290141        8 
O       2.58832624      -1.40515161       0.96394394        8 
O       1.05544989      -1.98515527      -0.57298346        8 
C       3.39230773      -2.52568656       0.55509833        6 
C      -2.14339619      -2.80457725      -1.33013402        6 
C      -1.23981203       1.19023269       0.03681298        6 
C      -0.88999035       2.43031203       0.90682416        6 
C       0.65277793       2.50311577       0.75340410        6 
C       0.92181421       1.25267339      -0.11341707        6 
O      -0.21954989       1.21816827      -0.97482901        8 
H      -1.19384283       0.03325100       1.89948458        1 
H       1.11412464       0.19969606       1.80072747        1 
H       3.65676663      -2.44362847      -0.50055553        1 
H      -3.00944917      -3.16951986      -0.77637285        1 
H      -1.37397307       3.31840166       0.49714824        1 
H      -1.22323532       2.31391855       1.93856841        1 
H       0.95789803       3.39713529       0.20637154        1 
H       1.20033183       2.48294990       1.69473653        1 
H       4.28323940      -2.48387541       1.17761388        1 
H       2.85299109      -3.46033846       0.71689961        1 
H      -1.31222026      -3.50134448      -1.21511159        1 
H      -2.38425236      -2.67054156      -2.38274410        1 
C      -2.61037908       1.23231984      -0.61083960        6 
C       2.17897845       1.29784307      -0.95683860        6 
O       3.27936528       1.50607629      -0.09176644        8 
H       2.08699484       2.12046852      -1.68064217        1 
H       2.29301151       0.36460033      -1.52575110        1 
C       4.52667650       1.39991525      -0.74803478        6 
H       5.29953455       1.57453378       0.00062909        1 
H       4.62635607       2.14693853      -1.54810358        1 
H       4.66552321       0.39950826      -1.18147418        1 
O      -3.55987848       0.92585701       0.39771565        8 
H      -2.65718092       0.50698235      -1.42689636        1 
H      -2.79041161       2.23702686      -1.01998010        1 
C      -4.87976230       0.81959419      -0.09977960        6 
H      -5.52446336       0.57919663       0.74577869        1 
H      -4.95817740       0.02147479      -0.85067463        1 
H      -5.21607781       1.76358323      -0.55112938        1 
