43
Lattice="0.0 0.0 0.0 0.0 0.0 0.0 0.0 0.0 0.0" Properties=species:S:1:pos:R:3:Z:I:1 pbc="F F F"
C      -0.69087004      -0.04140802      -0.69780556        6 
C       0.88181828       0.08576748      -0.63116546        6 
C      -1.44389175       1.13512842      -0.11411610        6 
C       1.34696647       1.24433853       0.23628036        6 
O      -1.95960701       1.89886368      -1.10034311        8 
O      -1.58692833       1.38326583       1.05880279        8 
O       1.27986817       2.39047191      -0.48376110        8 
O       1.67964264       1.21321535       1.39174086        8 
C       1.56190732       3.60035030       0.24234451        6 
C      -2.69701061       3.05667609      -0.67413469        6 
C      -0.91461826      -1.42120639       0.01810921        6 
C      -0.61979088      -2.50954263      -1.03815944        6 
C       0.92035523      -2.36572385      -1.18415814        6 
C       1.24870174      -1.32143194      -0.07847522        6 
O       0.21402281      -1.54235537       0.89274000        8 
H      -0.99738927      -0.11230039      -1.73888895        1 
H       1.28888571       0.24668655      -1.62752202        1 
H       2.57801717       3.58105873       0.63901084        1 
H      -2.05268064       3.73382660      -0.11068361        1 
H      -0.88864080      -3.48666749      -0.63194708        1 
H      -1.17345541      -2.36213421      -1.96534433        1 
H       1.43411288      -3.30500987      -0.97483044        1 
H       1.23646492      -2.02852411      -2.17215163        1 
H       1.44864985       4.40550151      -0.48052731        1 
H       0.85636706       3.71585962       1.06690704        1 
H      -3.54047314       2.76152749      -0.04812226        1 
H      -3.04503528       3.53228826      -1.58842678        1 
C      -2.19231983      -1.57782167       0.81383205        6 
C       2.60987405      -1.47640753       0.57009258        6 
O       3.57305960      -1.01284200      -0.36604241        8 
H       2.78017266      -2.53624623       0.80814927        1 
H       2.65082847      -0.89408121       1.49376442        1 
C       4.88729151      -1.00392220       0.15935492        6 
H       5.54387835      -0.61815126      -0.62102901        1 
H       5.21544964      -2.01591326       0.43561296        1 
H       4.95554843      -0.35669259       1.04393259        1 
O      -3.27242684      -1.28610691      -0.06113212        8 
H      -2.18311128      -0.88773844       1.66330101        1 
H      -2.26391052      -2.60723661       1.19233760        1 
C      -4.52602873      -1.28246669       0.59642790        6 
H      -5.28031085      -1.03390102      -0.15062388        1 
H      -4.54977917      -0.53438387       1.40026747        1 
H      -4.75641306      -2.26817461       1.02409492        1 
