43
Lattice="0.0 0.0 0.0 0.0 0.0 0.0 0.0 0.0 0.0" Properties=species:S:1:pos:R:3:Z:I:1 pbc="F F F"
C      -0.55816426       0.08194738       0.84413504        6 
C       0.99475476      -0.13646774       0.69641655        6 
C      -1.41551353      -1.16871253       0.95465717        6 
C       1.44773863      -1.32082887      -0.16852941        6 
O      -2.23352690      -1.38444143      -0.09207354        8 
O      -1.32786412      -1.92266805       1.89222882        8 
O       0.62686506      -2.37876469      -0.05615036        8 
O       2.43484121      -1.34736306      -0.86228144        8 
C       0.98431445      -3.55357290      -0.80438823        6 
C      -3.03327824      -2.57685034      -0.02336530        6 
C      -0.81873546       1.27968247      -0.14461456        6 
C      -0.57013510       2.55072598       0.69271076        6 
C       0.94062412       2.38624959       0.99851385        6 
C       1.35029779       1.23176921       0.03032683        6 
O       0.34110346       1.27919784      -0.99974527        8 
H      -0.68726348       0.48279775       1.85264520        1 
H       1.46738619      -0.26331807       1.67168227        1 
H       1.97675369      -3.90223740      -0.51582099        1 
H      -3.69578816      -2.54462758       0.84286371        1 
H      -0.76042192       3.43227589       0.07666095        1 
H      -1.20505370       2.60524597       1.57645264        1 
H       1.50741599       3.28877582       0.77003896        1 
H       1.14473838       2.12853143       2.03861623        1 
H       0.23022524      -4.29558321      -0.55124534        1 
H       0.97426768      -3.34085565      -1.87456137        1 
H      -2.39517210      -3.45899207       0.04787679        1 
H      -3.61025738      -2.59395557      -0.94585382        1 
C      -2.07025260       1.30707658      -0.99323324        6 
C       2.72545293       1.43392525      -0.57704752        6 
O       3.66836134       1.25981616       0.46795968        8 
H       2.77895568       2.45717287      -0.97863063        1 
H       2.90275383       0.72684379      -1.38730711        1 
C       5.00184685       1.19387509      -0.00141106        6 
H       5.64299589       1.05886927       0.87012304        1 
H       5.29162762       2.11995494      -0.51822349        1 
H       5.13547941       0.34611305      -0.68530616        1 
O      -3.17596192       1.43464207      -0.11422585        8 
H      -2.15099994       0.39622874      -1.59245812        1 
H      -2.01273020       2.17120546      -1.67105331        1 
C      -4.41894525       1.25833269      -0.76251999        6 
H      -5.19607957       1.37596178      -0.00682801        1 
H      -4.49520544       0.25630626      -1.20653124        1 
H      -4.57168688       2.00735252      -1.55236117        1 
