43
Lattice="0.0 0.0 0.0 0.0 0.0 0.0 0.0 0.0 0.0" Properties=species:S:1:pos:R:3:Z:I:1 pbc="F F F"
C      -0.70941980       0.05278575       0.78149667        6 
C       0.82320397      -0.20297250       0.73079676        6 
C      -1.62788346      -1.15017912       0.68057083        6 
C       1.29379659      -1.33618060      -0.16528313        6 
O      -1.00373625      -2.26547868       1.12482518        8 
O      -2.81202031      -1.11601007       0.45315834        8 
O       0.41537046      -1.63613296      -1.14156707        8 
O       2.39596082      -1.82795399      -0.09830246        8 
C       0.82829511      -2.63719662      -2.08516132        6 
C      -1.80883879      -3.45316052       1.21107227        6 
C      -0.88924985       1.30501993      -0.15338811        6 
C      -0.59739738       2.53645423       0.73030231        6 
C       0.91121931       2.32194299       1.03176074        6 
C       1.26795633       1.15358779       0.06775648        6 
O       0.29222998       1.27642090      -0.97830790        8 
H      -0.94171558       0.38703676       1.79937765        1 
H       1.27960483      -0.34682064       1.70691241        1 
H       0.99248635      -3.59130637      -1.58080391        1 
H      -2.18394785      -3.73028083       0.22426416        1 
H      -0.76363165       3.44478023       0.14846000        1 
H      -1.23087183       2.57823619       1.61544412        1 
H       1.50689410       3.20326939       0.79262045        1 
H       1.11447750       2.06165625       2.07108275        1 
H       0.01142306      -2.71714199      -2.79917259        1 
H       1.74840364      -2.33453861      -2.58677289        1 
H      -2.65310998      -3.29710576       1.88422778        1 
H      -1.14580001      -4.22417531       1.59759745        1 
C      -2.12252219       1.40139935      -1.02604310        6 
C       2.66495114       1.22095008      -0.51215272        6 
O       3.57233099       1.16244634       0.57198010        8 
H       2.77381035       2.16473232      -1.06675872        1 
H       2.83977854       0.39567973      -1.21149679        1 
C       4.90182275       0.88433708       0.17118769        6 
H       5.50998891       0.86399470       1.07563626        1 
H       5.28951396       1.66144056      -0.50299149        1 
H       4.96372849      -0.09089959      -0.32766104        1 
O      -3.19922519       1.81707667      -0.20553202        8 
H      -2.33584919       0.43801398      -1.50034146        1 
H      -1.92903547       2.14141857      -1.81615977        1 
C      -4.46943373       1.52114421      -0.75580872        6 
H      -5.21511022       1.90030705      -0.05625971        1 
H      -4.59989669       0.43876046      -0.87123905        1 
H      -4.61116503       2.01334058      -1.72881143        1 
