43
Lattice="0.0 0.0 0.0 0.0 0.0 0.0 0.0 0.0 0.0" Properties=species:S:1:pos:R:3:Z:I:1 pbc="F F F"
C      -0.69703509       0.04309321       0.86110905        6 
C       0.87879039       0.01800902       0.74581012        6 
C      -1.43366273      -1.22630833       0.47591319        6 
C       1.51827631      -1.25990554       0.21555881        6 
O      -1.36978870      -1.47189614      -0.85324022        8 
O      -1.99755170      -1.95003461       1.25623177        8 
O       0.90893875      -2.33965176       0.74383514        8 
O       2.51160216      -1.34292423      -0.46337040        8 
C       1.43912148      -3.62518296       0.37915274        6 
C      -1.99389668      -2.68752022      -1.29566366        6 
C      -1.03035254       1.32005959       0.00709335        6 
C      -0.71716097       2.54575220       0.89688226        6 
C       0.83371720       2.52235332       0.90522514        6 
C       1.14039271       1.33526260      -0.05151332        6 
O       0.02852949       1.36220483      -0.96005615        8 
H      -0.98591570       0.20570888       1.89691043        1 
H       1.30303634       0.10919698       1.74892235        1 
H       2.47165751      -3.72316463       0.71744096        1 
H      -3.06330139      -2.67166096      -1.07832672        1 
H      -1.09801584       3.44928779       0.41701280        1 
H      -1.17014263       2.47030070       1.88528444        1 
H       1.25211721       3.44272737       0.49574566        1 
H       1.26736038       2.37342442       1.89406722        1 
H       0.80024977      -4.34987580       0.87894997        1 
H       1.40164311      -3.75664640      -0.70356675        1 
H      -1.54333477      -3.54841159      -0.79888750        1 
H      -1.82109598      -2.72979172      -2.36917172        1 
C      -2.36544562       1.35620985      -0.70937829        6 
C       2.43459638       1.48966821      -0.82344883        6 
O       3.48911112       1.49595778       0.12503695        8 
H       2.40010694       2.44373599      -1.37016899        1 
H       2.55559594       0.67579048      -1.54050225        1 
C       4.76036315       1.28529729      -0.46132778        6 
H       5.49403732       1.31691772       0.34491112        1 
H       5.00060915       2.07077300      -1.19219338        1 
H       4.80484154       0.30707725      -0.95504793        1 
O      -3.37295940       1.10606754       0.25487622        8 
H      -2.38213258       0.60001785      -1.50153674        1 
H      -2.50161850       2.34472043      -1.17127179        1 
C      -4.66822219       1.00869649      -0.30470457        6 
H      -5.35763176       0.80489665       0.51450223        1 
H      -4.72615209       0.18974206      -1.03518276        1 
H      -4.96284136       1.94433079      -0.80006296        1 
