43
Lattice="0.0 0.0 0.0 0.0 0.0 0.0 0.0 0.0 0.0" Properties=species:S:1:pos:R:3:Z:I:1 pbc="F F F"
C      -0.99979082       0.09112434      -0.71584277        6 
C       0.56271960      -0.05118066      -0.85073598        6 
C      -1.52364980       1.25109145       0.14140003        6 
C       1.35348922       1.24334300      -0.95808783        6 
O      -0.70776711       2.31795780       0.12700046        8 
O      -2.55844259       1.24295208       0.76319781        8 
O       2.17315259       1.49566597       0.07823136        8 
O       1.22110405       1.99220284      -1.89484413        8 
C       2.91024060       2.72703792       0.00270683        6 
C      -1.13703014       3.46443614       0.88136418        6 
C      -1.29283798      -1.29120892      -0.04267319        6 
C      -0.82022816      -2.43009084      -0.99947037        6 
C       0.69462130      -2.51685691      -0.68561367        6 
C       0.87466013      -1.23103705       0.14630972        6 
O      -0.28934114      -1.28135847       0.99436316        8 
H      -1.47536676       0.18562555      -1.69332654        1 
H       0.72039174      -0.44946585      -1.85609171        1 
H       2.22782449       3.57489399      -0.07258003        1 
H      -1.18802771       3.22269314       1.94411595        1 
H      -1.34277248      -3.35746129      -0.76523354        1 
H      -1.03358792      -2.19161503      -2.04225879        1 
H       0.92777133      -3.38519212      -0.06576788        1 
H       1.33567648      -2.54176014      -1.56620708        1 
H       3.48615118       2.77788828       0.92470125        1 
H       3.57331798       2.72400047      -0.86372192        1 
H      -2.11680859       3.80053434       0.53998551        1 
H      -0.38501350       4.22807809       0.69549614        1 
C      -2.66035797      -1.56394833       0.55403122        6 
C       2.12212107      -1.19233832       0.99972389        6 
O       3.23482300      -1.27944485       0.12401629        8 
H       2.10216761      -2.05111756       1.68657150        1 
H       2.15961060      -0.27215331       1.58841952        1 
C       4.46681903      -1.03616494       0.77136124        6 
H       5.25066275      -1.12663277       0.01868272        1 
H       4.65362385      -1.76654542       1.57141607        1 
H       4.49470713      -0.02585893       1.20188292        1 
O      -3.59791992      -1.48071063      -0.50727016        8 
H      -2.89827861      -0.85054077       1.34288396        1 
H      -2.65162981      -2.57740239       0.98299468        1 
C      -4.93903192      -1.47281132      -0.05531903        6 
H      -5.57544146      -1.40068087      -0.93787985        1 
H      -5.12691247      -0.61203324       0.59896032        1 
H      -5.18548094      -2.39669662       0.48759639        1 
