43
Lattice="0.0 0.0 0.0 0.0 0.0 0.0 0.0 0.0 0.0" Properties=species:S:1:pos:R:3:Z:I:1 pbc="F F F"
C      -0.85082115      -0.02263850      -0.66275556        6 
C       0.70423393       0.24066118      -0.63852046        6 
C      -1.73935002       1.15199743      -0.28227531        6 
C       1.09683068       1.47724517       0.17372231        6 
O      -1.87323219       1.96224891      -1.35378089        8 
O      -2.34035897       1.31128145       0.75070967        8 
O       2.32799216       1.40300408       0.70677470        8 
O       0.42520475       2.47785624       0.24698507        8 
C       2.79103154       2.58231429       1.39235843        6 
C      -2.59187189       3.18504125      -1.12574415        6 
C      -0.96765782      -1.36036431       0.14896021        6 
C      -0.69215594      -2.49052530      -0.86252308        6 
C       0.79588359      -2.21939615      -1.19227893        6 
C       1.18075679      -1.15483657      -0.11687485        6 
O       0.23589499      -1.38531612       0.94229827        8 
H      -1.12774130      -0.22451559      -1.69739157        1 
H       1.08407014       0.43332481      -1.64409808        1 
H       2.12839516       2.82423521       2.22407136        1 
H      -2.07391496       3.78103461      -0.37281818        1 
H      -0.82232389      -3.45476220      -0.36694465        1 
H      -1.35751791      -2.45572130      -1.72465120        1 
H       1.41124193      -3.11196885      -1.07733431        1 
H       0.95505005      -1.84452874      -2.20428962        1 
H       3.78599012       2.33137084       1.75376706        1 
H       2.83292802       3.42874495       0.70572150        1 
H      -3.61021888       2.97782907      -0.79295073        1 
H      -2.60003147       3.70049022      -2.08392186        1 
C      -2.17420183      -1.56634235       1.03797981        6 
C       2.58898869      -1.34723706       0.41051279        6 
O       3.48312540      -1.06233713      -0.65176955        8 
H       2.69247932      -2.39468290       0.73025772        1 
H       2.78035400      -0.70334214       1.27071926        1 
C       4.83676081      -1.06697046      -0.24656397        6 
H       5.43954811      -0.85220838      -1.12939138        1 
H       5.13252031      -2.04468437       0.15978196        1 
H       5.02483814      -0.29717246       0.51452473        1 
O      -3.31467082      -1.58290043       0.19269998        8 
H      -2.24375412      -0.76039296       1.77165251        1 
H      -2.06758078      -2.52589847       1.56504887        1 
C      -4.52943686      -1.41654643       0.90146725        6 
H      -5.33576109      -1.45652002       0.16834409        1 
H      -4.55183659      -0.44786160       1.41570265        1 
H      -4.67690795      -2.21933642       1.63771896        1 
