43
Lattice="0.0 0.0 0.0 0.0 0.0 0.0 0.0 0.0 0.0" Properties=species:S:1:pos:R:3:Z:I:1 pbc="F F F"
C      -0.77406593      -0.09793105       0.78771861        6 
C       0.78401207       0.06626009       0.77201825        6 
C      -1.33349197      -1.30379912       0.05717978        6 
C       1.56250526      -1.19837051       0.45357117        6 
O      -0.62099189      -1.61400162      -1.04492819        8 
O      -2.35097828      -1.87335668       0.36964895        8 
O       1.05057487      -2.22342110       1.17787451        8 
O       2.55426904      -1.30763226      -0.22067882        8 
C       1.69522896      -3.49817012       1.01913060        6 
C      -1.10055539      -2.72100427      -1.82573771        6 
C      -1.19229054       1.22123919       0.04417717        6 
C      -0.88075794       2.42174964       0.97466981        6 
C       0.65631964       2.55651279       0.80363097        6 
C       0.97033213       1.34585751      -0.10946415        6 
O      -0.18380566       1.32409706      -0.96966686        8 
H      -1.18791776      -0.13299944       1.79199373        1 
H       1.11294514       0.29535992       1.78998098        1 
H       2.73910783      -3.44184587       1.33147273        1 
H      -2.09943290      -2.51173609      -2.21200266        1 
H      -1.40527740       3.31021435       0.61980384        1 
H      -1.20031370       2.23676105       2.00029878        1 
H       0.91885848       3.47804914       0.28097385        1 
H       1.21553589       2.53040214       1.73838006        1 
H       1.14020901      -4.18452320       1.65491857        1 
H       1.65012353      -3.81885395      -0.02327093        1 
H      -1.13559831      -3.62813684      -1.21980320        1 
H      -0.38955289      -2.82891314      -2.64172248        1 
C      -2.56835148       1.24156290      -0.58857842        6 
C       2.22745768       1.48594539      -0.94006535        6 
O       3.31102334       1.62606610      -0.03566443        8 
H       2.13230579       2.38045419      -1.57294511        1 
H       2.36233608       0.61175347      -1.58115523        1 
C       4.56914335       1.38392604      -0.63795627        6 
H       5.32548950       1.51922905       0.13596680        1 
H       4.76611326       2.09199790      -1.45564653        1 
H       4.62384528       0.35919380      -1.02434270        1 
O      -3.51580265       1.24286635       0.46103110        8 
H      -2.71041741       0.37145831      -1.24285010        1 
H      -2.66340739       2.14485493      -1.20880398        1 
C      -4.83505103       0.97455854       0.02333182        6 
H      -5.47588647       1.00481115       0.90446688        1 
H      -4.90232882      -0.02021841      -0.43569815        1 
H      -5.18076984       1.72877082      -0.69802552        1 
