43
Lattice="0.0 0.0 0.0 0.0 0.0 0.0 0.0 0.0 0.0" Properties=species:S:1:pos:R:3:Z:I:1 pbc="F F F"
C      -0.84413091      -0.01183340      -0.66307620        6 
C       0.70613983       0.27050490      -0.62899469        6 
C      -1.75279564       1.17143925      -0.36939187        6 
C       1.06190090       1.46849617       0.25974352        6 
O      -1.73585059       2.00476417      -1.43235796        8 
O      -2.50115011       1.30801373       0.56612956        8 
O       2.24151052       1.34925835       0.89003444        8 
O       0.40423340       2.47971407       0.31910552        8 
C       2.65960575       2.48698481       1.66863145        6 
C      -2.47183913       3.22821230      -1.27863046        6 
C      -0.95796343      -1.33566111       0.17198951        6 
C      -0.70439162      -2.47688587      -0.83190805        6 
C       0.76876525      -2.18980047      -1.21198636        6 
C       1.18646260      -1.13351612      -0.13906347        6 
O       0.26246269      -1.36205888       0.94126812        8 
H      -1.09567737      -0.24885619      -1.69796152        1 
H       1.09160587       0.51147979      -1.62106651        1 
H       1.93236572       2.69882047       2.45324871        1 
H      -2.04238464       3.81648953      -0.46619792        1 
H      -0.80543177      -3.43495849      -0.31802352        1 
H      -1.39743590      -2.46249363      -1.67254069        1 
H       1.39477309      -3.07844900      -1.13051567        1 
H       0.88806206      -1.80256113      -2.22501754        1 
H       3.61766473       2.20291286       2.09867225        1 
H       2.76845933       3.36498137       1.03075489        1 
H      -3.52232140       3.02223737      -1.06792732        1 
H      -2.36661173       3.75236357      -2.22636020        1 
C      -2.14793664      -1.52668264       1.08572324        6 
C       2.60738844      -1.34314385       0.34905112        6 
O       3.47630686      -0.99004875      -0.71440824        8 
H       2.72742937      -2.40608282       0.60578282        1 
H       2.81274684      -0.74770034       1.23960376        1 
C       4.84103628      -1.06113131      -0.35439467        6 
H       5.42227059      -0.77811031      -1.23239469        1 
H       5.12457140      -2.07868550      -0.04980273        1 
H       5.07169517      -0.37025999       0.46837860        1 
O      -3.29503921      -1.62800628       0.25637943        8 
H      -2.23852712      -0.68405601       1.77470804        1 
H      -2.00371574      -2.45110377       1.66440762        1 
C      -4.50746131      -1.43304795       0.96183864        6 
H      -5.31734950      -1.53359625       0.23847008        1 
H      -4.54097163      -0.43241342       1.40920497        1 
H      -4.63848725      -2.18785685       1.75029993        1 
