43
Lattice="0.0 0.0 0.0 0.0 0.0 0.0 0.0 0.0 0.0" Properties=species:S:1:pos:R:3:Z:I:1 pbc="F F F"
C      -0.89391122       0.13352681      -0.85004477        6 
C       0.67366953       0.04748274      -0.84197133        6 
C      -1.51085254       1.42342032      -0.32536263        6 
C       1.39950835       1.36202057      -0.58655005        6 
O      -1.24359997       1.63510423       0.97920901        8 
O      -2.21404094       2.14374313      -0.98883815        8 
O       2.72282911       1.17388039      -0.41880651        8 
O       0.89946418       2.45884376      -0.63390809        8 
C       3.51842858       2.36781099      -0.29937909        6 
C      -1.70135096       2.88910864       1.50960522        6 
C      -1.25398441      -1.12767646       0.00225839        6 
C      -0.93419403      -2.38561204      -0.84589024        6 
C       0.61011309      -2.46019384      -0.72613360        6 
C       0.91392502      -1.19115528       0.10812965        6 
O      -0.21575232      -1.13633355       0.99235325        8 
H      -1.28196571       0.03609182      -1.86124828        1 
H       1.02313623      -0.22546202      -1.84191999        1 
H       3.21543798       2.94430848       0.57607247        1 
H      -2.78437199       2.98049039       1.40947986        1 
H      -1.41285505      -3.26108942      -0.40361760        1 
H      -1.29551461      -2.29085218      -1.86967372        1 
H       0.92360188      -3.34259482      -0.16605716        1 
H       1.13536408      -2.46938913      -1.68047911        1 
H       4.54398290       2.02056530      -0.19523037        1 
H       3.41060724       2.98720301      -1.19087914        1 
H      -1.21868329       3.71174248       0.97951334        1 
H      -1.41170061       2.88417831       2.55841605        1 
C      -2.61348593      -1.15002796       0.67078425        6 
C       2.17414098      -1.28714797       0.94431862        6 
O       3.24445963      -1.65661099       0.09521006        8 
H       2.00739216      -2.05681484       1.71165691        1 
H       2.38306999      -0.33998387       1.45284438        1 
C       4.50612873      -1.53867305       0.71778117        6 
H       5.25603806      -1.84727241      -0.01113724        1 
H       4.58230400      -2.18460349       1.60441222        1 
H       4.70338625      -0.50116872       1.02128120        1 
O      -3.58556434      -1.16735312      -0.35952555        8 
H      -2.74191117      -0.27603106       1.31878524        1 
H      -2.68771613      -2.05194125       1.29619445        1 
C      -4.90957066      -1.05027868       0.12444333        6 
H      -5.56990009      -1.06125470      -0.74259155        1 
H      -5.05116409      -0.10809141       0.67132544        1 
H      -5.17047706      -1.88778612       0.78703705        1 
