43
Lattice="0.0 0.0 0.0 0.0 0.0 0.0 0.0 0.0 0.0" Properties=species:S:1:pos:R:3:Z:I:1 pbc="F F F"
C      -0.83495715       0.00482133       0.87899186        6 
C       0.73510239      -0.08987795       0.80781384        6 
C      -1.56829035      -1.30888431       0.63586118        6 
C       1.30234368      -1.37279983       0.21944585        6 
O      -2.00138210      -1.48197553      -0.62177347        8 
O      -1.75838936      -2.10344979       1.52548425        8 
O       2.63982398      -1.41859511       0.40484016        8 
O       0.68675953      -2.27782632      -0.28531302        8 
C       3.29848528      -2.60767216      -0.06682282        6 
C      -2.57812913      -2.76560690      -0.91136817        6 
C      -1.11517050       1.24233396      -0.03520518        6 
C      -0.76053627       2.50147052       0.79457613        6 
C       0.78801592       2.43369981       0.81730347        6 
C       1.05549221       1.18583241      -0.06274642        6 
O      -0.03899457       1.19656614      -0.98867183        8 
H      -1.11526227       0.24581301       1.90359782        1 
H       1.18636936       0.01597265       1.79346864        1 
H       3.17574128      -2.71116925      -1.14656612        1 
H      -3.44294231      -2.95342255      -0.27291990        1 
H      -1.10923351       3.39164254       0.26788688        1 
H      -1.22011805       2.49345070       1.78262608        1 
H       1.23746754       3.31457021       0.35666185        1 
H       1.21293158       2.32801893       1.81500342        1 
H       4.34764085      -2.47702821       0.18913127        1 
H       2.88949849      -3.49122575       0.42540831        1 
H      -1.83189324      -3.54597151      -0.75735794        1 
H      -2.87446477      -2.72097420      -1.95764684        1 
C      -2.44284164       1.32062198      -0.76226303        6 
C       2.35533949       1.23835819      -0.83964720        6 
O       3.40993361       1.45092198       0.07808338        8 
H       2.29022472       2.06875823      -1.55788926        1 
H       2.51139506       0.31532742      -1.41167233        1 
C       4.68700960       1.27867658      -0.50053571        6 
H       5.42287232       1.46020573       0.28305343        1 
H       4.85749611       1.98763984      -1.32334111        1 
H       4.81358503       0.25651624      -0.88321064        1 
O      -3.46305155       1.16105033       0.21041802        8 
H      -2.50021276       0.53842567      -1.52261468        1 
H      -2.52717185       2.30034633      -1.25468902        1 
C      -4.75281579       1.04070777      -0.35659697        6 
H      -5.45616795       0.91488997       0.46679104        1 
H      -4.81353098       0.16720740      -1.01985732        1 
H      -5.02675992       1.93875019      -0.92813439        1 
