43
Lattice="0.0 0.0 0.0 0.0 0.0 0.0 0.0 0.0 0.0" Properties=species:S:1:pos:R:3:Z:I:1 pbc="F F F"
C      -0.82242524      -0.00141105      -0.67940450        6 
C       0.73407898       0.26197175      -0.62489258        6 
C      -1.72487153       1.19934276      -0.45310597        6 
C       1.08188723       1.47141871       0.25454303        6 
O      -1.61503147       2.02712391      -1.51143630        8 
O      -2.55087352       1.34236780       0.41501947        8 
O       2.00003332       1.23301140       1.20359442        8 
O       0.59500257       2.56579552       0.09526424        8 
C       2.35323990       2.35651439       2.03263731        6 
C      -2.34185605       3.26273872      -1.42741030        6 
C      -0.96486299      -1.31168971       0.17381935        6 
C      -0.71800906      -2.46787165      -0.81572747        6 
C       0.76202308      -2.20115656      -1.18642955        6 
C       1.18536272      -1.14086539      -0.11784992        6 
O       0.24698369      -1.34959683       0.95460024        8 
H      -1.05142500      -0.25937085      -1.71494697        1 
H       1.12528651       0.49138695      -1.61611763        1 
H       1.47153440       2.73861141       2.54793739        1 
H      -1.94512479       3.86768728      -0.61066807        1 
H      -0.83396626      -3.41853380      -0.29127171        1 
H      -1.40413416      -2.45597003      -1.66191881        1 
H       1.37609203      -3.09704194      -1.09377440        1 
H       0.89287512      -1.82308078      -2.20162034        1 
H       3.07838516       1.97034187       2.74584810        1 
H       2.79125179       3.15194889       1.42836726        1 
H      -3.40439943       3.07528657      -1.26660662        1 
H      -2.17912819       3.76086633      -2.38086121        1 
C      -2.16671573      -1.47403845       1.07762057        6 
C       2.60560522      -1.35118175       0.37636593        6 
O       3.47785046      -0.88879298      -0.64321206        8 
H       2.75931183      -2.42580476       0.55353183        1 
H       2.77938711      -0.81852589       1.31185545        1 
C       4.84249626      -1.00864447      -0.29388719        6 
H       5.42554393      -0.62495926      -1.13149466        1 
H       5.12038410      -2.05678776      -0.11379916        1 
H       5.07580690      -0.42283161       0.60610965        1 
O      -3.30323779      -1.60170299       0.23806710        8 
H      -2.26739481      -0.61100418       1.74012253        1 
H      -2.02918661      -2.37971702       1.68668702        1 
C      -4.52467274      -1.38344154       0.92048702        6 
H      -5.32474250      -1.50784596       0.18996945        1 
H      -4.56362661      -0.36830766       1.33337952        1 
H      -4.66693968      -2.11164448       1.73173103        1 
