43
Lattice="0.0 0.0 0.0 0.0 0.0 0.0 0.0 0.0 0.0" Properties=species:S:1:pos:R:3:Z:I:1 pbc="F F F"
C      -0.87984445       0.15050177      -0.58079983        6 
C       0.68477394      -0.05971642      -0.67024255        6 
C      -1.35084908       1.31047391       0.29650802        6 
C       1.55438853       1.10645284      -0.23832001        6 
O      -0.68681463       2.44227973      -0.01942376        8 
O      -2.24900608       1.29362838       1.09971442        8 
O       1.79778718       1.90226347      -1.30110091        8 
O       2.05984037       1.27888958       0.84433681        8 
C       2.59245536       3.06893258      -1.04282380        6 
C      -1.03985791       3.61767082       0.73195869        6 
C      -1.30126492      -1.26376047      -0.08187925        6 
C      -0.95241904      -2.28794053      -1.20454317        6 
C       0.56039367      -2.52408955      -0.96861200        6 
C       0.85913162      -1.43074866       0.07784610        6 
O      -0.30148896      -1.51242392       0.92266067        8 
H      -1.28850248       0.35934012      -1.57125780        1 
H       0.93381063      -0.20260897      -1.72055860        1 
H       3.58937764       2.78667897      -0.69996131        1 
H      -0.77790214       3.48323076       1.78235746        1 
H      -1.53519967      -3.20053155      -1.07578172        1 
H      -1.18056894      -1.89171404      -2.19516948        1 
H       0.74480473      -3.50381211      -0.52307057        1 
H       1.17617453      -2.43375192      -1.86323498        1 
H       2.65012359       3.59834620      -1.99149151        1 
H       2.11684089       3.69249504      -0.28374148        1 
H      -2.10792779       3.81990615       0.64592880        1 
H      -0.45911139       4.42604843       0.29335303        1 
C      -2.68559293      -1.45678676       0.50494090        6 
C       2.11237125      -1.63643228       0.89991892        6 
O       3.21603736      -1.49761374       0.01686815        8 
H       2.09202839      -2.64341831       1.34067464        1 
H       2.15897208      -0.89645057       1.70277172        1 
C       4.45427189      -1.38951413       0.69430111        6 
H       5.22766488      -1.28176560      -0.06695902        1 
H       4.66466211      -2.28772037       1.29186513        1 
H       4.46672495      -0.51134924       1.35248529        1 
O      -3.61899017      -1.06953579      -0.49196149        8 
H      -2.80645490      -0.85679120       1.40764952        1 
H      -2.81288463      -2.51912505       0.76048140        1 
C      -4.94445291      -0.99522739      -0.00122358        6 
H      -5.57899004      -0.68699971      -0.83283523        1 
H      -5.02324153      -0.25776650       0.80789095        1 
H      -5.29070030      -1.97069274       0.36931824        1 
