43
Lattice="0.0 0.0 0.0 0.0 0.0 0.0 0.0 0.0 0.0" Properties=species:S:1:pos:R:3:Z:I:1 pbc="F F F"
C      -0.70132798       0.15066744       0.94060223        6 
C       0.85423630      -0.03723516       0.86337725        6 
C      -1.65609092      -1.03080475       0.97016471        6 
C       1.47292157      -1.30685601       0.29692301        6 
O      -1.42720016      -1.96904604       0.03404316        8 
O      -2.58554367      -1.09036341       1.74013221        8 
O       1.04398781      -1.62732704      -0.93210461        8 
O       2.38367248      -1.88416007       0.84755036        8 
C       1.64299766      -2.78452728      -1.53196552        6 
C      -2.35089397      -3.07167449       0.00802825        6 
C      -0.95603729       1.21662050      -0.20799188        6 
C      -0.69714881       2.59480580       0.43139735        6 
C       0.83327624       2.49946761       0.68502097        6 
C       1.20327431       1.18519285      -0.06139849        6 
O       0.18579211       1.08051903      -1.06420314        8 
H      -0.91817952       0.63621299       1.89018659        1 
H       1.30132234       0.07597052       1.84817848        1 
H       1.44235968      -3.67352382      -0.93099275        1 
H      -3.36267496      -2.71827172      -0.19800531        1 
H      -0.93300847       3.37889500      -0.29072016        1 
H      -1.28862253       2.76521657       1.33026635        1 
H       1.37201330       3.34209204       0.24975673        1 
H       1.09840372       2.45174535       1.74136050        1 
H       1.17922132      -2.87314226      -2.51219010        1 
H       2.72313040      -2.65821564      -1.62790261        1 
H      -2.34532458      -3.59924403       0.96272545        1 
H      -2.00117271      -3.72060954      -0.79226258        1 
C      -2.21623293       1.07446007      -1.03285335        6 
C       2.57758875       1.18663644      -0.69915595        6 
O       3.52193492       1.31262095       0.34648957        8 
H       2.64826490       2.03075360      -1.40081459        1 
H       2.74208949       0.26472576      -1.27061056        1 
C       4.85269349       1.06610048      -0.06730053        6 
H       5.48765639       1.18976036       0.80980686        1 
H       5.17012417       1.77512082      -0.84493209        1 
H       4.96422487       0.04228239      -0.44857282        1 
O      -3.31304144       1.40644970      -0.20397641        8 
H      -2.30098916       0.04767174      -1.41321477        1 
H      -2.15470543       1.75189474      -1.89697065        1 
C      -4.56564717       1.08844688      -0.77694587        6 
H      -5.33059042       1.39453542      -0.06362782        1 
H      -4.65740792       0.00840366      -0.95733507        1 
H      -4.72202254       1.62110656      -1.72575948        1 
