43
Lattice="0.0 0.0 0.0 0.0 0.0 0.0 0.0 0.0 0.0" Properties=species:S:1:pos:R:3:Z:I:1 pbc="F F F"
C      -0.88346680       0.13224049      -0.67499490        6 
C       0.68359609       0.15310185      -0.72142333        6 
C      -1.54494329       1.24576307       0.12875821        6 
C       1.34895323       1.43925913      -0.25777995        6 
O      -2.10345960       2.14571120      -0.70808523        8 
O      -1.60327203       1.32436275       1.32947172        8 
O       2.68532495       1.37087235      -0.43560284        8 
O       0.79662705       2.42928626       0.15215640        8 
C       3.42821918       2.54934578      -0.07541019        6 
C      -2.67973731       3.30131374      -0.07735906        6 
C      -1.12288019      -1.27137636      -0.02722378        6 
C      -0.73474974      -2.35427674      -1.06984772        6 
C       0.81429159      -2.34178402      -0.97730356        6 
C       1.04545292      -1.18944716       0.02973198        6 
O      -0.05568733      -1.34995590       0.93056959        8 
H      -1.29480860       0.17782263      -1.68065015        1 
H       1.01188583       0.05176184      -1.75805039        1 
H       3.30136928       2.77176436       0.98542974        1 
H      -1.91271269       3.83993404       0.48119145        1 
H      -1.14609613      -3.32099995      -0.77492421        1 
H      -1.11688325      -2.12024421      -2.06389034        1 
H       1.19768551      -3.27205814      -0.55520407        1 
H       1.31997182      -2.17356710      -1.92761317        1 
H       4.46682633       2.31400895      -0.29739518        1 
H       3.09437568       3.40605017      -0.66265408        1 
H      -3.48417830       3.00913618       0.59986460        1 
H      -3.06769645       3.91307841      -0.88928818        1 
C      -2.44752334      -1.49621369       0.67382963        6 
C       2.33727069      -1.28189367       0.81590472        6 
O       3.40249643      -1.47947003      -0.09420426        8 
H       2.25212924      -2.13520818       1.50408118        1 
H       2.49676995      -0.37956298       1.41910116        1 
C       4.67250690      -1.33428412       0.50557981        6 
H       5.41764664      -1.49669771      -0.27364546        1 
H       4.82796965      -2.06946056       1.30820071        1 
H       4.80135982      -0.32566405       0.92225961        1 
O      -3.47363091      -1.22037610      -0.26755620        8 
H      -2.52466266      -0.83845986       1.54443633        1 
H      -2.50224499      -2.54050870       1.01376242        1 
C      -4.77145949      -1.34295480       0.28214295        6 
H      -5.48078932      -1.10082879      -0.50967006        1 
H      -4.91587883      -0.64921429       1.12127912        1 
H      -4.96191627      -2.36669132       0.63403447        1 
