43
Lattice="0.0 0.0 0.0 0.0 0.0 0.0 0.0 0.0 0.0" Properties=species:S:1:pos:R:3:Z:I:1 pbc="F F F"
C      -0.69793143       0.18480599      -0.75045859        6 
C       0.84088024       0.33734881      -0.64818841        6 
C      -1.57194484       1.41536195      -0.58640650        6 
C       1.36827394       1.32728300       0.38176607        6 
O      -2.77710656       1.16190559      -1.15311216        8 
O      -1.30370616       2.46664801      -0.06661197        8 
O       2.55035146       1.83847773      -0.05048311        8 
O       0.86595564       1.62436663       1.43094821        8 
C       3.18329717       2.77515656       0.83738706        6 
C      -3.76029557       2.20296383      -1.04177866        6 
C      -0.98026562      -1.09107628       0.15179798        6 
C      -0.82038299      -2.30170441      -0.78707678        6 
C       0.69224523      -2.17840287      -1.13243828        6 
C       1.17239170      -1.10484162      -0.11032342        6 
O       0.21172134      -1.20863833       0.94719364        8 
H      -0.91072294      -0.12104170      -1.77626384        1 
H       1.31143689       0.53358658      -1.60878167        1 
H       3.39071161       2.31129709       1.80374948        1 
H      -3.42166526       3.10808492      -1.54892015        1 
H      -1.03222134      -3.22055700      -0.23704166        1 
H      -1.48150391      -2.25992566      -1.65216090        1 
H       1.22767607      -3.11519926      -0.97398773        1 
H       0.87689068      -1.86651562      -2.16108755        1 
H       4.10954972       3.06229690       0.34390274        1 
H       2.54375990       3.64573170       0.99231029        1 
H      -3.95619848       2.43546011       0.00656679        1 
H      -4.65467780       1.80832713      -1.51928183        1 
C      -2.17873982      -1.08279924       1.07869554        6 
C       2.56811029      -1.33071349       0.43213740        6 
O       3.46331633      -1.26802755      -0.66223336        8 
H       2.60746630      -2.31681610       0.91753441        1 
H       2.81994990      -0.57722396       1.18963027        1 
C       4.82099176      -1.25582288      -0.26695999        6 
H       5.41979456      -1.20683068      -1.17654873        1 
H       5.08695318      -2.16551409       0.28968433        1 
H       5.04277189      -0.37970085       0.35770390        1 
O      -3.33230762      -1.44256660       0.34226654        8 
H      -2.29595792      -0.09338677       1.54291153        1 
H      -1.99088744      -1.80772766       1.88366283        1 
C      -4.52496234      -1.29699165       1.08540599        6 
H      -5.34578949      -1.61366694       0.44147807        1 
H      -4.68444537      -0.25112209       1.38372427        1 
H      -4.51635172      -1.92228527       1.98956462        1 
