43
Lattice="0.0 0.0 0.0 0.0 0.0 0.0 0.0 0.0 0.0" Properties=species:S:1:pos:R:3:Z:I:1 pbc="F F F"
C      -0.72020543      -0.06406274       0.81863409        6 
C       0.82894640      -0.18249030       0.71591251        6 
C      -1.41242986      -1.41645706       0.75197571        6 
C       1.27301314      -1.29157746      -0.22410918        6 
O      -2.63082813      -1.39028974       0.19068742        8 
O      -0.92353001      -2.41305234       1.22911390        8 
O       2.54301663      -1.66441307       0.04240207        8 
O       0.60739702      -1.78696751      -1.09875978        8 
C       3.06944303      -2.72145065      -0.77962759        6 
C      -3.33313863      -2.64740976       0.16193541        6 
C      -1.02577739       1.17504462      -0.10520008        6 
C      -0.79635744       2.42194686       0.77924757        6 
C       0.73788283       2.34182154       1.00750083        6 
C       1.14286738       1.19604210       0.03889795        6 
O       0.12447301       1.23849481      -0.97085910        8 
H      -0.95229521       0.24261794       1.84433780        1 
H       1.32747434      -0.29748128       1.67501649        1 
H       3.06073950      -2.43160832      -1.83189125        1 
H      -3.50860409      -3.00938897       1.17589664        1 
H      -1.06873985       3.31682108       0.21656989        1 
H      -1.38786926       2.40454334       1.69409897        1 
H       1.24055087       3.26781692       0.72507589        1 
H       1.01677462       2.11764304       2.03756721        1 
H       4.08847314      -2.87778692      -0.43228003        1 
H       2.47699078      -3.62900700      -0.65385951        1 
H      -2.75749071      -3.38945122      -0.39235787        1 
H      -4.27667349      -2.43842532      -0.33788868        1 
C      -2.27793445       1.21199305      -0.95297942        6 
C       2.50470066       1.35694057      -0.60356621        6 
O       3.46772352       1.35976042       0.43301772        8 
H       2.52534620       2.30349718      -1.16315228        1 
H       2.69611618       0.54346910      -1.31436280        1 
C       4.79484136       1.25000371      -0.04166418        6 
H       5.44909038       1.25650415       0.83028942        1 
H       5.06081341       2.09206110      -0.69631023        1 
H       4.94000004       0.31118548      -0.59335041        1 
O      -3.38024845       1.44252035      -0.09195209        8 
H      -2.39735786       0.27534438      -1.50511594        1 
H      -2.17647835       2.03421183      -1.67629841        1 
C      -4.62494787       1.26515470      -0.73458144        6 
H      -5.40124325       1.45235056       0.00808438        1 
H      -4.73128870       0.24100681      -1.11727454        1 
H      -4.75277654       1.96890934      -1.56983138        1 
