43
Lattice="0.0 0.0 0.0 0.0 0.0 0.0 0.0 0.0 0.0" Properties=species:S:1:pos:R:3:Z:I:1 pbc="F F F"
C      -0.73874398      -0.02258702      -0.79507083        6 
C       0.83382194       0.08501815      -0.83232729        6 
C      -1.44724937       1.18353253      -0.21440933        6 
C       1.30972522       1.46957295      -0.41424269        6 
O      -2.44390250       1.58509544      -1.02369550        8 
O      -1.18601412       1.71604951       0.83849488        8 
O       1.91649698       1.53324215       0.77596058        8 
O       1.11191164       2.43497385      -1.11565457        8 
C       2.23746497       2.85647782       1.24394343        6 
C      -3.21476714       2.71065244      -0.56761888        6 
C      -0.92056768      -1.30956304       0.09763939        6 
C      -0.61697549      -2.52732752      -0.80290942        6 
C       0.92435178      -2.41246896      -0.94611172        6 
C       1.24048490      -1.18929506      -0.03674474        6 
O       0.21735812      -1.27310166       0.96759931        8 
H      -1.14293953      -0.19538734      -1.78864873        1 
H       1.16612474      -0.00032034      -1.86661575        1 
H       1.32256587       3.44052079       1.34752000        1 
H      -2.57715117       3.58934994      -0.46095133        1 
H      -0.90170685      -3.44387149      -0.28238561        1 
H      -1.15978998      -2.49407588      -1.74694712        1 
H       1.42840445      -3.29977323      -0.55977813        1 
H       1.25985677      -2.25911164      -1.97225663        1 
H       2.71246971       2.71203993       2.21197182        1 
H       2.91544476       3.35474620       0.54989933        1 
H      -3.68575252       2.48722386       0.39117899        1 
H      -3.96813504       2.87419119      -1.33498194        1 
C      -2.17755471      -1.40603919       0.93635339        6 
C       2.61001569      -1.22837310       0.61088015        6 
O       3.55869827      -0.92370099      -0.39981284        8 
H       2.78924620      -2.23411147       1.01806133        1 
H       2.65998649      -0.50478091       1.42735586        1 
C       4.87762071      -0.81279710       0.09797470        6 
H       5.52420775      -0.58234218      -0.74911372        1 
H       5.21322451      -1.75198064       0.55987260        1 
H       4.95527692      -0.00686793       0.84048915        1 
O      -3.28500468      -1.45321564       0.05407699        8 
H      -2.24690706      -0.54463772       1.61244194        1 
H      -2.12448388      -2.31727423       1.54960506        1 
C      -4.52842595      -1.45333476       0.72799018        6 
H      -5.30722071      -1.49135920      -0.03380590        1 
H      -4.65619295      -0.54249580       1.32951577        1 
H      -4.62763063      -2.32674792       1.38772500        1 
