43
Lattice="0.0 0.0 0.0 0.0 0.0 0.0 0.0 0.0 0.0" Properties=species:S:1:pos:R:3:Z:I:1 pbc="F F F"
C      -0.83316969       0.28028633      -0.60974489        6 
C       0.71880363       0.15457827      -0.72544422        6 
C      -1.39608829       1.28897215       0.38188221        6 
C       1.58744612       1.34330073      -0.35717800        6 
O      -2.33489161       2.05114621      -0.23768754        8 
O      -1.10378685       1.41917492       1.53925942        8 
O       2.57671627       1.46772439      -1.27608373        8 
O       1.45553570       2.10445215       0.56630209        8 
C       3.52824613       2.51569997      -1.03513475        6 
C      -2.97819414       3.03613336       0.58827191        6 
C      -1.15886910      -1.16972508      -0.10604444        6 
C      -0.72233956      -2.19845819      -1.19202713        6 
C       0.80244358      -2.33111292      -0.91365764        6 
C       0.99528619      -1.18075139       0.09239467        6 
O      -0.16920690      -1.32891657       0.91421461        8 
H      -1.28586777       0.47353742      -1.57946312        1 
H       0.95401222      -0.04572230      -1.76841536        1 
H       4.06184727       2.33909264      -0.09920938        1 
H      -2.24562491       3.74621878       0.97552771        1 
H      -1.24949840      -3.14301529      -1.05213065        1 
H      -0.94732712      -1.84191704      -2.19793597        1 
H       1.03786644      -3.28028127      -0.42747885        1 
H       1.42838266      -2.23395788      -1.80038424        1 
H       4.21702924       2.48188168      -1.87664747        1 
H       3.02963124       3.48501287      -0.98395312        1 
H      -3.48916350       2.55967065       1.42719345        1 
H      -3.69441112       3.53648010      -0.06024714        1 
C      -2.53882674      -1.40605488       0.47236985        6 
C       2.21467965      -1.22552009       0.98601414        6 
O       3.36929781      -1.20866365       0.16649508        8 
H       2.17414186      -2.14330289       1.59020107        1 
H       2.20222681      -0.36618556       1.66961732        1 
C       4.56977733      -1.11132278       0.90781343        6 
H       5.38944176      -1.08649526       0.18941106        1 
H       4.70199671      -1.97509721       1.57441418        1 
H       4.59166269      -0.19476806       1.51368490        1 
O      -3.47392846      -1.25123167      -0.58032430        8 
H      -2.74354655      -0.70281800       1.28977365        1 
H      -2.57910155      -2.42382788       0.88741484        1 
C      -4.81504184      -1.38595866      -0.15129009        6 
H      -5.44853507      -1.24459738      -1.02703512        1 
H      -5.07043456      -0.62989620       0.60413383        1 
H      -5.00294843      -2.38301670       0.27142897        1 
