43
Lattice="0.0 0.0 0.0 0.0 0.0 0.0 0.0 0.0 0.0" Properties=species:S:1:pos:R:3:Z:I:1 pbc="F F F"
C      -0.70068062      -0.15489199       0.72374165        6 
C       0.86860118      -0.09075117       0.69150595        6 
C      -1.29495588      -1.48154942       0.27054836        6 
C       1.55787903      -1.20932007      -0.07593223        6 
O      -2.63175913      -1.41026120       0.12116546        8 
O      -0.68104324      -2.51271468       0.14753192        8 
O       2.22060835      -2.02124681       0.77151827        8 
O       1.55661272      -1.34970532      -1.27397045        8 
C       2.82544553      -3.17862632       0.17280232        6 
C      -3.29420687      -2.64524470      -0.21008115        6 
C      -1.08853910       1.18731929      -0.00350400        6 
C      -0.84030103       2.33643034       1.00864423        6 
C       0.70999228       2.39604641       1.03553270        6 
C       1.08039111       1.30015965       0.00460275        6 
O      -0.00850213       1.35788316      -0.92971179        8 
H      -1.03624544      -0.08424194       1.76240326        1 
H       1.27345345      -0.09501683       1.70016668        1 
H       3.57919409      -2.88483097      -0.56002246        1 
H      -3.14187402      -3.38243603       0.57953683        1 
H      -1.26973068       3.26050504       0.61871991        1 
H      -1.29725480       2.14204005       1.97857536        1 
H       1.07958911       3.36594604       0.69803621        1 
H       1.14047888       2.19806963       2.01733788        1 
H       3.28448934      -3.72528754       0.99401866        1 
H       2.06140640      -3.78535693      -0.31581673        1 
H      -2.91244993      -3.04389115      -1.15114880        1 
H      -4.34830191      -2.39134163      -0.29830237        1 
C      -2.39774390       1.30207807      -0.75744954        6 
C       2.38488401       1.51114784      -0.73705551        6 
O       3.43804974       1.25047857       0.17768270        8 
H       2.43122555       2.54787374      -1.10030370        1 
H       2.43382338       0.83512920      -1.59584955        1 
C       4.71735585       1.31277279      -0.42330150        6 
H       5.44838520       1.08227388       0.35201440        1 
H       4.92327829       2.31507295      -0.82462200        1 
H       4.81001261       0.58109341      -1.23722700        1 
O      -3.44609532       1.41576284       0.18755822        8 
H      -2.55300706       0.44013505      -1.41394480        1 
H      -2.34290766       2.20453742      -1.38371819        1 
C      -4.72595711       1.30533610      -0.39865598        6 
H      -5.45852412       1.41118935       0.40198136        1 
H      -4.85789260       0.32710074      -0.88148426        1 
H      -4.89726764       2.09262451      -1.14685582        1 
