43
Lattice="0.0 0.0 0.0 0.0 0.0 0.0 0.0 0.0 0.0" Properties=species:S:1:pos:R:3:Z:I:1 pbc="F F F"
C      -0.81993816       0.08747878      -0.70838871        6 
C       0.72228832       0.24866811      -0.62975783        6 
C      -1.66408305       1.34270031      -0.58225931        6 
C       1.13057798       1.23604095       0.46294091        6 
O      -1.01619539       2.39139784      -1.13949001        8 
O      -2.83313679       1.38174282      -0.28812766        8 
O       2.47246630       1.38004143       0.51238081        8 
O       0.38120645       1.88731507       1.14691917        8 
C       2.96710930       2.33581377       1.46814146        6 
C      -1.74321371       3.62941802      -1.18150847        6 
C      -1.08769307      -1.19948371       0.15164597        6 
C      -0.93684699      -2.38430781      -0.82168312        6 
C       0.56165552      -2.24157413      -1.20169101        6 
C       1.06928308      -1.20988411      -0.14999629        6 
O       0.12462561      -1.33717418       0.92828900        8 
H      -1.04830434      -0.17966860      -1.74669325        1 
H       1.20237467       0.51808606      -1.56784540        1 
H       2.67043206       2.05523058       2.48002195        1 
H      -1.96823625       3.96672458      -0.16845560        1 
H      -1.12885972      -3.31787525      -0.28968536        1 
H      -1.62112441      -2.32692641      -1.66777056        1 
H       1.10476739      -3.18165896      -1.09972365        1 
H       0.71874715      -1.88572217      -2.22100317        1 
H       4.04985505       2.31400836       1.36475945        1 
H       2.57987817       3.33112204       1.24506338        1 
H      -2.67343234       3.51216576      -1.73983210        1 
H      -1.08285366       4.33659249      -1.67916062        1 
C      -2.28986169      -1.24162670       1.07086205        6 
C       2.46506831      -1.50998551       0.35631040        6 
O       3.35432040      -1.36238001      -0.73546540        8 
H       2.47991854      -2.54310807       0.73423510        1 
H       2.74412291      -0.84462326       1.17868598        1 
C       4.71246814      -1.45522885      -0.35505070        6 
H       5.30973211      -1.33071359      -1.25855536        1 
H       4.93959580      -2.43308539       0.09292000        1 
H       4.97646017      -0.66717403       0.36366746        1 
O      -3.42571320      -1.55109173       0.28239406        8 
H      -2.41461804      -0.28368646       1.58494787        1 
H      -2.11859555      -2.02336968       1.82496837        1 
C      -4.64760095      -1.18029134       0.89366288        6 
H      -5.44652216      -1.48350020       0.21609731        1 
H      -4.69224532      -0.09556096       1.04436083        1 
H      -4.78642116      -1.69023413       1.85804933        1 
