43
Lattice="0.0 0.0 0.0 0.0 0.0 0.0 0.0 0.0 0.0" Properties=species:S:1:pos:R:3:Z:I:1 pbc="F F F"
C      -0.73485652       0.13507241      -0.71384620        6 
C       0.82306174       0.25604182      -0.60561107        6 
C      -1.60518470       1.29233164      -0.26210724        6 
C       1.40350269       1.28592392       0.35159262        6 
O      -2.47496513       1.60948281      -1.25456446        8 
O      -1.55833317       1.89119999       0.78101665        8 
O       2.32625920       2.03738318      -0.30457728        8 
O       1.13033901       1.44627993       1.51006594        8 
C       2.98466640       3.04212069       0.48469137        6 
C      -3.41513693       2.65185968      -0.95370104        6 
C      -1.00036837      -1.22348476       0.06506606        6 
C      -0.77621002      -2.35070434      -0.96157843        6 
C       0.75499379      -2.21515926      -1.19570852        6 
C       1.15535454      -1.18965294      -0.09454355        6 
O       0.14978340      -1.36944328       0.90610691        8 
H      -0.98456700      -0.02027454      -1.76055663        1 
H       1.26350200       0.43262820      -1.58401510        1 
H       3.50971877       2.58677386       1.32652072        1 
H      -2.89746648       3.57193298      -0.67785995        1 
H      -1.02437342      -3.31051723      -0.50339528        1 
H      -1.37797019      -2.23424904      -1.86263393        1 
H       1.27809308      -3.15964509      -1.04016174        1 
H       1.01006148      -1.85651864      -2.19356439        1 
H       3.68948245       3.52492808      -0.18898400        1 
H       2.26022033       3.76336213       0.86705231        1 
H      -4.06870244       2.35042502      -0.13259414        1 
H      -3.99307765       2.79412161      -1.86457505        1 
C      -2.23981462      -1.30188111       0.92791149        6 
C       2.52582916      -1.40803824       0.51212605        6 
O       3.48195628      -1.21853012      -0.51562721        8 
H       2.57725725      -2.43062682       0.91362697        1 
H       2.69379914      -0.71152673       1.34342502        1 
C       4.81511861      -1.33049249      -0.05667892        6 
H       5.46590512      -1.16349926      -0.91503827        1 
H       5.01448066      -2.32898702       0.35721135        1 
H       5.03622061      -0.57984907       0.71474752        1 
O      -3.36847497      -1.14025743       0.08565716        8 
H      -2.20442702      -0.51610302       1.69285153        1 
H      -2.26382721      -2.27741968       1.43414277        1 
C      -4.58664475      -1.06955074       0.80187318        6 
H      -5.38066893      -0.92178350       0.06946817        1 
H      -4.58469045      -0.22908773       1.50943377        1 
H      -4.77989301      -1.99726104       1.35852523        1 
