43
Lattice="0.0 0.0 0.0 0.0 0.0 0.0 0.0 0.0 0.0" Properties=species:S:1:pos:R:3:Z:I:1 pbc="F F F"
C      -0.58025217       0.02207359       0.85988429        6 
C       0.95067647      -0.22981716       0.78834509        6 
C      -1.41791762      -1.24435480       0.89134101        6 
C       1.40844897      -1.43456363      -0.01870602        6 
O      -2.71542000      -1.01184502       0.62258205        8 
O      -0.99313196      -2.33031470       1.20428329        8 
O       0.56351968      -1.75307918      -1.01554133        8 
O       2.48684394      -1.96013789       0.12847667        8 
C       0.94654029      -2.86326594      -1.84221934        6 
C      -3.59695400      -2.14437249       0.73550264        6 
C      -0.78246454       1.20471240      -0.17068906        6 
C      -0.47788318       2.49733384       0.61668590        6 
C       1.03850238       2.30864750       0.90153057        6 
C       1.37935770       1.07070028       0.02299182        6 
O       0.38406736       1.11840654      -1.01064569        8 
H      -0.79398902       0.44021755       1.85042300        1 
H       1.42578312      -0.30188257       1.76351763        1 
H       1.00090539      -3.77571892      -1.24616179        1 
H      -3.57378933      -2.54721045       1.74902907        1 
H      -0.65893453       3.36183403      -0.02447325        1 
H      -1.09136396       2.60236559       1.51105110        1 
H       1.62465970       3.17064911       0.58152485        1 
H       1.26471708       2.12992253       1.95327935        1 
H       0.16690123      -2.94594946      -2.59659066        1 
H       1.91467638      -2.67801961      -2.30980795        1 
H      -3.30641073      -2.92650774       0.03238513        1 
H      -4.58736881      -1.76207119       0.49795722        1 
C      -2.01096011       1.25150178      -1.05448500        6 
C       2.76674142       1.08531946      -0.58318295        6 
O       3.69027366       1.09533369       0.48896012        8 
H       2.87664295       1.98451080      -1.20702402        1 
H       2.92142852       0.20945047      -1.22388272        1 
C       4.99912837       0.71177849       0.10596947        6 
H       5.61773532       0.75344081       1.00257925        1 
H       5.41498624       1.39611084      -0.64723716        1 
H       5.00532087      -0.31144110      -0.28941292        1 
O      -3.09584335       1.74350768      -0.28961773        8 
H      -2.23381113       0.25878130      -1.46076222        1 
H      -1.79459294       1.92631854      -1.89557362        1 
C      -4.33904276       1.59848427      -0.94246428        6 
H      -5.10342801       1.99373343      -0.27267761        1 
H      -4.55544189       0.54183392      -1.15302752        1 
H      -4.36811418       2.15881944      -1.88816747        1 
