43
Lattice="0.0 0.0 0.0 0.0 0.0 0.0 0.0 0.0 0.0" Properties=species:S:1:pos:R:3:Z:I:1 pbc="F F F"
C      -0.69528266       0.04957619       0.77806431        6 
C       0.83188735      -0.22617877       0.71368945        6 
C      -1.63236326      -1.14039034       0.70475082        6 
C       1.27970272      -1.34178243      -0.21725618        6 
O      -1.02054465      -2.25673770       1.16363034        8 
O      -2.81845683      -1.09159386       0.49050805        8 
O       0.35062020      -1.67367972      -1.13435048        8 
O       2.40172299      -1.79181486      -0.22763930        8 
C       0.74197527      -2.64677967      -2.11601552        6 
C      -1.84339516      -3.42958846       1.27927256        6 
C      -0.86963048       1.29952492      -0.16198294        6 
C      -0.57958255       2.53005643       0.72199605        6 
C       0.92186821       2.29867773       1.04494033        6 
C       1.28622245       1.13854177       0.07201694        6 
O       0.31743289       1.26951323      -0.98041401        8 
H      -0.90936083       0.39546590       1.79633130        1 
H       1.29466184      -0.39557820       1.68279090        1 
H       1.01830971      -3.58598133      -1.63381720        1 
H      -2.23813143      -3.71498920       0.30256210        1 
H      -0.72671899       3.43844369       0.13513979        1 
H      -1.22568195       2.58025814       1.59752801        1 
H       1.52926584       3.17767307       0.82833517        1 
H       1.10538169       2.02328221       2.08412584        1 
H      -0.13043015      -2.78381743      -2.75138026        1 
H       1.58763351      -2.28134967      -2.70040358        1 
H      -2.67459230      -3.25014814       1.96282769        1 
H      -1.18736538      -4.20594022       1.66716267        1 
C      -2.09714565       1.39369999      -1.04283086        6 
C       2.68800292       1.21857615      -0.49439628        6 
O       3.58532636       1.14383550       0.59765157        8 
H       2.79828160       2.17363245      -1.02928329        1 
H       2.87251155       0.40707523      -1.20605837        1 
C       4.92021632       0.88375630       0.20306365        6 
H       5.52050108       0.84744297       1.11233810        1 
H       5.30847480       1.67840274      -0.45001891        1 
H       4.99349957      -0.07938602      -0.31726040        1 
O      -3.17591880       1.82821329      -0.23509915        8 
H      -2.31428961       0.42543186      -1.50559878        1 
H      -1.89308986       2.12142440      -1.84167942        1 
C      -4.44481665       1.52997742      -0.78691301        6 
H      -5.19194422       1.92067742      -0.09532021        1 
H      -4.57892549       0.44669694      -0.88882195        1 
H      -4.58077136       2.01025268      -1.76669731        1 
