43
Lattice="0.0 0.0 0.0 0.0 0.0 0.0 0.0 0.0 0.0" Properties=species:S:1:pos:R:3:Z:I:1 pbc="F F F"
C      -0.72576783       0.08884409      -0.70709941        6 
C       0.84069995       0.20044519      -0.64229021        6 
C      -1.54971823       1.23436271      -0.15307889        6 
C       1.42582738       1.29915892       0.23162925        6 
O      -2.46168123       1.62612303      -1.07578765        8 
O      -1.43823520       1.76238338       0.92378819        8 
O       2.03085337       2.22824618      -0.55162649        8 
O       1.35662766       1.39312591       1.42774764        8 
C       2.60206603       3.34891939       0.14486252        6 
C      -3.36387094       2.66474566      -0.66268376        6 
C      -0.97117897      -1.29015644       0.03183131        6 
C      -0.69900600      -2.39692908      -1.00961964        6 
C       0.84332944      -2.27456632      -1.16573108        6 
C       1.18788753      -1.21963937      -0.07690045        6 
O       0.15819710      -1.41196382       0.89915781        8 
H      -1.02442955      -0.01415937      -1.74762257        1 
H       1.24897088       0.33190590      -1.64132585        1 
H       3.38352348       3.01553047       0.83016132        1 
H      -2.81392523       3.56148586      -0.37269046        1 
H      -0.97915720      -3.36494808      -0.58912318        1 
H      -1.25556470      -2.25420946      -1.93545960        1 
H       1.34584163      -3.21768667      -0.94579545        1 
H       1.15819765      -1.95484907      -2.15953278        1 
H       3.02133866       3.98906272      -0.62859670        1 
H       1.83334719       3.87758154       0.71088776        1 
H      -3.96927841       2.32935796       0.18164844        1 
H      -3.99423541       2.86286100      -1.52696036        1 
C      -2.23115905      -1.42540360       0.85891847        6 
C       2.54080315      -1.38038758       0.58524167        6 
O       3.52508162      -1.00653743      -0.36580419        8 
H       2.67126122      -2.42813033       0.89148449        1 
H       2.59424038      -0.74766625       1.47781982        1 
C       4.84281279      -1.09086943       0.14258102        6 
H       5.51616747      -0.77290009      -0.65367500        1 
H       5.09317821      -2.12000523       0.43592304        1 
H       4.97750275      -0.43460667       1.01323058        1 
O      -3.34241721      -1.27038789      -0.00689238        8 
H      -2.23777945      -0.66461449       1.64965506        1 
H      -2.23978925      -2.41620674       1.33521954        1 
C      -4.58156574      -1.29940308       0.67473844        6 
H      -5.36160221      -1.14568801      -0.07122431        1 
H      -4.64074493      -0.50323771       1.42969571        1 
H      -4.74448621      -2.26634629       1.17115135        1 
