43
Lattice="0.0 0.0 0.0 0.0 0.0 0.0 0.0 0.0 0.0" Properties=species:S:1:pos:R:3:Z:I:1 pbc="F F F"
C      -0.84368054       0.17498808      -0.67533534        6 
C       0.71477017       0.14819834      -0.76053736        6 
C      -1.40310504       1.26867929       0.22250414        6 
C       1.36589694       1.50003544      -0.50814682        6 
O      -2.40984207       1.91555954      -0.39984004        8 
O      -1.05935684       1.50030342       1.35463494        8 
O       2.68710848       1.40932436      -0.27723737        8 
O       0.78389100       2.55471256      -0.59112024        8 
C       3.38305179       2.66063449      -0.12065378        6 
C      -3.02603397       2.97743803       0.34754310        6 
C      -1.10061433      -1.22519117      -0.02505623        6 
C      -0.70161532      -2.32724166      -1.04357506        6 
C       0.84417763      -2.34608433      -0.89624276        6 
C       1.06835815      -1.15147407       0.06182805        6 
O      -0.05148357      -1.28645526       0.95074333        8 
H      -1.31039034       0.25893282      -1.65350849        1 
H       0.99605165      -0.04394935      -1.80144102        1 
H       2.98888760       3.20886214       0.73601671        1 
H      -2.28490676       3.73487512       0.60661119        1 
H      -1.14805635      -3.28116320      -0.75889745        1 
H      -1.04429299      -2.09171408      -2.05143418        1 
H       1.18589028      -3.26171973      -0.41085399        1 
H       1.38609319      -2.24169285      -1.83597937        1 
H       4.42503180       2.39217562       0.03891816        1 
H       3.27614063       3.27058814      -1.01865700        1 
H      -3.48029158       2.59096012       1.26197596        1 
H      -3.78654619       3.39170530      -0.31102229        1 
C      -2.43759623      -1.43904900       0.65408017        6 
C       2.34378524      -1.21970430       0.87404767        6 
O       3.42643966      -1.41790846      -0.01745102        8 
H       2.25631021      -2.06762907       1.56879877        1 
H       2.48026561      -0.30752731       1.46408401        1 
C       4.68436717      -1.24790357       0.60067809        6 
H       5.44443669      -1.40753123      -0.16476144        1 
H       4.83770655      -1.97265159       1.41326959        1 
H       4.79101782      -0.23350750       1.00897041        1 
O      -3.43584950      -1.42804816      -0.35141886        8 
H      -2.62128688      -0.65683309       1.40076110        1 
H      -2.41751115      -2.40703591       1.17581489        1 
C      -4.74603442      -1.52771511       0.17159509        6 
H      -5.43295430      -1.49929319      -0.67438762        1 
H      -4.97093473      -0.68991903       0.84615164        1 
H      -4.88934869      -2.46962929       0.71996268        1 
