43
Lattice="0.0 0.0 0.0 0.0 0.0 0.0 0.0 0.0 0.0" Properties=species:S:1:pos:R:3:Z:I:1 pbc="F F F"
C      -0.87647253       0.08003084      -0.71408418        6 
C       0.68262634       0.15212435      -0.66565125        6 
C      -1.59660319       1.37557351      -0.37399500        6 
C       1.20931213       1.20852801       0.29016283        6 
O      -1.03108862       2.38693566      -1.07704963        8 
O      -2.60063159       1.51022944       0.27610814        8 
O       2.50716852       1.47907713       0.03432392        8 
O       0.58086469       1.76008884       1.15956375        8 
C       3.12496083       2.45613353       0.89048636        6 
C      -1.57981512       3.69481569      -0.84550319        6 
C      -1.17979888      -1.23378437       0.08321566        6 
C      -0.97546972      -2.39962189      -0.91026583        6 
C       0.55973237      -2.34270020      -1.12839415        6 
C       0.98680637      -1.27633550      -0.08324991        6 
O      -0.02150014      -1.37922103       0.93126808        8 
H      -1.16907544      -0.08084400      -1.75593670        1 
H       1.14415685       0.29731678      -1.63964717        1 
H       3.10320673       2.12350145       1.92981297        1 
H      -1.42532831       3.98198152       0.19596549        1 
H      -1.27482883      -3.33417765      -0.43242765        1 
H      -1.56218489      -2.28334021      -1.82113573        1 
H       1.03839027      -3.29679563      -0.90365212        1 
H       0.85186631      -2.05945350      -2.13991660        1 
H       4.14989754       2.54351857       0.53661786        1 
H       2.60769617       3.41348132       0.81181693        1 
H      -2.64635160       3.71169898      -1.07392513        1 
H      -1.03426118       4.36100870      -1.51073396        1 
C      -2.43899995      -1.31962111       0.91740399        6 
C       2.35020130      -1.51648995       0.53112147        6 
O       3.30128069      -1.50026215      -0.51617768        8 
H       2.33871223      -2.49318604       1.03636165        1 
H       2.58201621      -0.75307034       1.28428333        1 
C       4.63643974      -1.51111822      -0.05264832        6 
H       5.28162992      -1.49153071      -0.93114501        1 
H       4.85346980      -2.41642057       0.53194054        1 
H       4.84672683      -0.62930324       0.56821281        1 
O      -3.53300652      -1.37399612       0.01609640        8 
H      -2.51952122      -0.45630749       1.58170092        1 
H      -2.39197012      -2.23527722       1.52530111        1 
C      -4.77161722      -1.06867430       0.63067023        6 
H      -5.53880141      -1.14741346      -0.14046498        1 
H      -4.76447500      -0.04930633       1.03398760        1 
H      -5.00450123      -1.77751015       1.43833071        1 
