43
Lattice="0.0 0.0 0.0 0.0 0.0 0.0 0.0 0.0 0.0" Properties=species:S:1:pos:R:3:Z:I:1 pbc="F F F"
C      -0.73038221      -0.05269557       0.82033189        6 
C       0.84356819      -0.01162736       0.89386831        6 
C      -1.34024974      -1.36423630       0.33905319        6 
C       1.57456001      -1.31826265       0.61263109        6 
O      -2.68153228      -1.26003242       0.23071904        8 
O      -0.75955492      -2.40697993       0.17065530        8 
O       1.74266255      -1.56826761      -0.69915923        8 
O       1.98848555      -2.03507865       1.48976621        8 
C       2.28747792      -2.85838915      -1.01917944        6 
C      -3.38124255      -2.46939538      -0.11482354        6 
C      -1.01234880       1.22777481      -0.05180031        6 
C      -0.69265407       2.46707502       0.82902443        6 
C       0.85678775       2.48899111       0.78958871        6 
C       1.16018279       1.21357578      -0.03106957        6 
O       0.08027831       1.19853615      -0.98001335        8 
H      -1.15851429       0.09185323       1.81423383        1 
H       1.14060860       0.21825721       1.91534695        1 
H       1.60400413      -3.63694347      -0.67719751        1 
H      -3.19379980      -3.24430375       0.62962939        1 
H      -1.12101653       3.36249461       0.37697704        1 
H      -1.10753684       2.37356323       1.83226387        1 
H       1.22742495       3.36370222       0.25185506        1 
H       1.32635007       2.47376506       1.77289186        1 
H       2.37703002      -2.87575580      -2.10369003        1 
H       3.26204076      -2.99466066      -0.54797725        1 
H      -3.06272845      -2.83009861      -1.09433505        1 
H      -4.43470076      -2.19833891      -0.12959992        1 
C      -2.30497176       1.35822576      -0.83274289        6 
C       2.48355977       1.22075456      -0.77035809        6 
O       3.50270273       0.98104407       0.18546789        8 
H       2.62610038       2.19770953      -1.25457132        1 
H       2.47961064       0.44466001      -1.54034047        1 
C       4.76957445       0.75197046      -0.40041234        6 
H       5.47148810       0.56926000       0.41326836        1 
H       5.10873794       1.62206148      -0.97986315        1 
H       4.74665389      -0.12558030      -1.06100790        1 
O      -3.35459778       1.60464442       0.08335173        8 
H      -2.50336176       0.45986928      -1.42655800        1 
H      -2.19022317       2.20499501      -1.52526145        1 
C      -4.63186380       1.54479349      -0.51638116        6 
H      -5.36535773       1.74229753       0.26569153        1 
H      -4.82190328       0.55172480      -0.94650577        1 
H      -4.74197932       2.29893529      -1.30895518        1 
