43
Lattice="0.0 0.0 0.0 0.0 0.0 0.0 0.0 0.0 0.0" Properties=species:S:1:pos:R:3:Z:I:1 pbc="F F F"
C      -0.94660448       0.19872056      -0.78891227        6 
C       0.58682011      -0.07734435      -0.87602434        6 
C      -1.36554790       1.44064535      -0.01717903        6 
C       1.41129979       1.19926270      -0.94248600        6 
O      -0.42895493       1.86641872       0.85101379        8 
O      -2.46977412       1.92559368      -0.08597442        8 
O       2.58551146       1.14863459      -0.29531850        8 
O       1.05058266       2.15857219      -1.58318187        8 
C       3.41196870       2.32210713      -0.40978635        6 
C      -0.77722044       3.00875043       1.65027093        6 
C      -1.38739687      -1.07154894       0.01969585        6 
C      -1.09544930      -2.33510060      -0.83714658        6 
C       0.42385151      -2.54182528      -0.59472878        6 
C       0.77626958      -1.24421423       0.16587971        6 
O      -0.36894130      -1.11468806       1.03249672        8 
H      -1.43419892       0.24823345      -1.75929774        1 
H       0.77962788      -0.50406170      -1.86605589        1 
H       2.88152903       3.19920205      -0.03704104        1 
H      -1.64683759       2.78879773       2.27151823        1 
H      -1.68568459      -3.17778743      -0.47561405        1 
H      -1.35435250      -2.17960037      -1.88482305        1 
H       0.61030742      -3.40043714       0.05315084        1 
H       1.00738167      -2.67090348      -1.50607391        1 
H       4.29144039       2.11629801       0.19660925        1 
H       3.69414886       2.48897039      -1.45017794        1 
H      -0.99724182       3.86478190       1.01081274        1 
H       0.09463352       3.20559119       2.27038649        1 
C      -2.75999158      -1.05650579       0.65924858        6 
C       2.02460135      -1.32229890       1.01586669        6 
O       3.09982617      -1.70305087       0.17508083        8 
H       1.85990609      -2.07861572       1.79707266        1 
H       2.22197861      -0.36044510       1.49794356        1 
C       4.35849916      -1.58146632       0.80357073        6 
H       5.11239282      -1.89449600       0.08054843        1 
H       4.42916636      -2.22255538       1.69404598        1 
H       4.55375095      -0.54220477       1.10160989        1 
O      -3.71061143      -1.11097627      -0.38736728        8 
H      -2.90226462      -0.15734050       1.26912104        1 
H      -2.85080417      -1.93241368       1.31861900        1 
C      -5.02053906      -0.77093669       0.02984524        6 
H      -5.66511283      -0.85394838      -0.84534332        1 
H      -5.05588437       0.25839143       0.40799377        1 
H      -5.38472247      -1.45614901       0.80875471        1 
