43
Lattice="0.0 0.0 0.0 0.0 0.0 0.0 0.0 0.0 0.0" Properties=species:S:1:pos:R:3:Z:I:1 pbc="F F F"
C      -0.71349788       0.02487666       0.85528935        6 
C       0.82773540      -0.20392381       0.74226523        6 
C      -1.50651533      -1.27143169       0.96134159        6 
C       1.16099054      -1.39340473      -0.15935144        6 
O      -2.49881859      -1.41371276       0.07127757        8 
O      -1.25544032      -2.08455709       1.81877141        8 
O       2.48741194      -1.49029907      -0.38592952        8 
O       0.38109136      -2.23263728      -0.53592352        8 
C       2.91222088      -2.63629446      -1.14724224        6 
C      -3.21381295      -2.66092966       0.13376234        6 
C      -0.95753913       1.19122929      -0.17227945        6 
C      -0.72705114       2.48664843       0.63192081        6 
C       0.77739789       2.33324795       0.97901472        6 
C       1.20766074       1.15248064       0.05439503        6 
O       0.22609287       1.17270108      -1.00092493        8 
H      -0.88606636       0.44405688       1.85036445        1 
H       1.31797810      -0.35123904       1.70353286        1 
H       2.46164101      -2.62333585      -2.14090392        1 
H      -3.69565225      -2.77848197       1.10539063        1 
H      -0.90263933       3.34996720      -0.01318247        1 
H      -1.38158841       2.56569394       1.49932805        1 
H       1.34936805       3.22978855       0.73950661        1 
H       0.95658315       2.10365402       2.03022692        1 
H       3.99470234      -2.55165711      -1.21550103        1 
H       2.62977194      -3.55806228      -0.63698344        1 
H      -2.52819673      -3.49193677      -0.03578153        1 
H      -3.95817775      -2.60759987      -0.65836758        1 
C      -2.18405847       1.18757803      -1.05592170        6 
C       2.59149879       1.33852780      -0.53461706        6 
O       3.51750228       1.27737487       0.53520695        8 
H       2.62710242       2.32334428      -1.02379086        1 
H       2.80974799       0.57521592      -1.28508420        1 
C       4.86188894       1.24873639       0.10029009        6 
H       5.48771942       1.19753832       0.99156923        1 
H       5.12159019       2.15309728      -0.46834770        1 
H       5.05512865       0.36776862      -0.52710588        1 
O      -3.30884167       1.41583429      -0.22304179        8 
H      -2.27295526       0.23461237      -1.58450611        1 
H      -2.08194800       1.99494355      -1.79595167        1 
C      -4.53772570       1.18839154      -0.88154526        6 
H      -5.33106004       1.38237356      -0.15897243        1 
H      -4.61321835       0.14977476      -1.23028587        1 
H      -4.66590813       1.86135100      -1.74164794        1 
