43
Lattice="0.0 0.0 0.0 0.0 0.0 0.0 0.0 0.0 0.0" Properties=species:S:1:pos:R:3:Z:I:1 pbc="F F F"
C      -0.68268274      -0.08350999      -0.67461142        6 
C       0.87354002       0.18683442      -0.62289525        6 
C      -1.60072278       1.01521773      -0.16752066        6 
C       1.35437316       1.42525865       0.13125934        6 
O      -2.02384372       1.77128709      -1.20369066        8 
O      -2.00555406       1.15842442       0.96063784        8 
O       0.49673881       2.45315686      -0.01358524        8 
O       2.41644243       1.54502748       0.69039788        8 
C       0.85841519       3.68684927       0.63193676        6 
C      -2.92235861       2.83931195      -0.87129692        6 
C      -0.78129433      -1.46204060       0.07252815        6 
C      -0.40696850      -2.54690133      -0.96004406        6 
C       1.10498948      -2.26452403      -1.14762903        6 
C       1.36922481      -1.18426853      -0.05792403        6 
O       0.36742024      -1.46134991       0.93555118        8 
H      -0.96676473      -0.22153031      -1.71629863        1 
H       1.25645678       0.33552775      -1.63556701        1 
H       1.82397312       4.03966428       0.26758580        1 
H      -2.44830209       3.53485885      -0.17643706        1 
H      -0.57531523      -3.53276255      -0.52196846        1 
H      -0.99566485      -2.47638441      -1.87454185        1 
H       1.71156450      -3.14932518      -0.95205073        1 
H       1.36312578      -1.90455946      -2.14416284        1 
H       0.06934070       4.38955591       0.37405893        1 
H       0.90636293       3.54463102       1.71222694        1 
H      -3.83291335       2.44584709      -0.41636782        1 
H      -3.14834376       3.33483409      -1.81323617        1 
C      -2.03194807      -1.73959175       0.88001922        6 
C       2.74592821      -1.27775771       0.56768102        6 
O       3.69217528      -1.00046487      -0.45069558        8 
H       2.88077882      -2.29941726       0.95317303        1 
H       2.84176966      -0.57435393       1.39643633        1 
C       4.98627740      -0.73728774       0.05949870        6 
H       5.63684475      -0.55102923      -0.79563363        1 
H       5.37752858      -1.59578319       0.62416652        1 
H       4.97752446       0.14666726       0.70892458        1 
O      -3.13548421      -1.62115154      -0.00638750        8 
H      -2.11196954      -1.02360474       1.70147916        1 
H      -1.97452229      -2.75647692       1.29393721        1 
C      -4.38288059      -1.63754947       0.66201792        6 
H      -5.15624240      -1.53016508      -0.09925690        1 
H      -4.45767560      -0.80742070       1.37640228        1 
H      -4.53854360      -2.58423720       1.19834330        1 
