43
Lattice="0.0 0.0 0.0 0.0 0.0 0.0 0.0 0.0 0.0" Properties=species:S:1:pos:R:3:Z:I:1 pbc="F F F"
C      -0.68555683      -0.04885768      -0.79531424        6 
C       0.86808360       0.20040969      -0.78840412        6 
C      -1.57982910       1.11339893      -0.40914803        6 
C       1.33685630       1.48483199      -0.12014916        6 
O      -2.38503559       1.43499657      -1.44592959        8 
O      -1.59084416       1.70903962       0.64087581        8 
O       1.16373080       1.49087000       1.20686990        8 
O       1.86458930       2.38567786      -0.73180865        8 
C       1.47526633       2.71948800       1.88348511        6 
C      -3.31819611       2.50266743      -1.21214412        6 
C      -0.79944565      -1.31833972       0.13779667        6 
C      -0.48697783      -2.53410956      -0.76009418        6 
C       1.03014633      -2.31181966      -1.02222232        6 
C       1.34300588      -1.11020017      -0.08183684        6 
O       0.37158754      -1.25819091       0.96047424        8 
H      -0.98759178      -0.32571607      -1.80222178        1 
H       1.24621142       0.25934401      -1.80625667        1 
H       0.83412662       3.52021942       1.51237505        1 
H      -2.79435476       3.41575787      -0.92596085        1 
H      -0.66390131      -3.45398739      -0.19866894        1 
H      -1.09539565      -2.56143823      -1.66374575        1 
H       1.62219264      -3.17944598      -0.72818878        1 
H       1.26636269      -2.08956799      -2.06300787        1 
H       1.27148859       2.52818034       2.93447909        1 
H       2.52142771       2.99093495       1.73230703        1 
H      -4.01891235       2.22647181      -0.42185948        1 
H      -3.84334962       2.64015787      -2.15487789        1 
C      -2.02005139      -1.40066336       1.02747852        6 
C       2.74088910      -1.11078579       0.50157144        6 
O       3.64612946      -0.96755907      -0.57878154        8 
H       2.90709210      -2.06074766       1.03100822        1 
H       2.85645960      -0.29507333       1.22431339        1 
C       4.99399234      -0.85872377      -0.16201271        6 
H       5.60054401      -0.75251912      -1.06131471        1 
H       5.31722643      -1.75432736       0.38709712        1 
H       5.14253156       0.02172299       0.47799532        1 
O      -3.16476619      -1.31226110       0.19481352        8 
H      -1.99658054      -0.57413128       1.74769576        1 
H      -2.00914478      -2.34977277       1.58165075        1 
C      -4.37270036      -1.20247822       0.92440176        6 
H      -5.18136962      -1.13138677       0.19665863        1 
H      -4.37259166      -0.30432572       1.55685029        1 
H      -4.53890214      -2.08283867       1.56052426        1 
