43
Lattice="0.0 0.0 0.0 0.0 0.0 0.0 0.0 0.0 0.0" Properties=species:S:1:pos:R:3:Z:I:1 pbc="F F F"
C      -0.88564514       0.09030136      -0.87053793        6 
C       0.68459071       0.05305195      -0.83311196        6 
C      -1.52707726       1.40169398      -0.42905474        6 
C       1.39879130       1.32356809      -0.40602820        6 
O      -1.66377481       1.51891916       0.90103609        8 
O      -1.92535796       2.22423535      -1.21861656        8 
O       2.69462258       1.26454904      -0.78352512        8 
O       0.92784404       2.27959192       0.15814725        8 
C       3.50440116       2.40270882      -0.44235249        6 
C      -2.12944066       2.79546704       1.36834902        6 
C      -1.22115635      -1.17792362      -0.02030306        6 
C      -0.84554721      -2.42301094      -0.87099137        6 
C       0.69747695      -2.46107291      -0.71799806        6 
C       0.94323490      -1.18493102       0.11794617        6 
O      -0.19534672      -1.16014114       0.98551244        8 
H      -1.23006066      -0.03748384      -1.89448326        1 
H       1.07999788      -0.18044237      -1.82116551        1 
H       3.53127521       2.54353485       0.63976514        1 
H      -3.10117737       3.03561974       0.93444451        1 
H      -1.31157303      -3.31451909      -0.44804733        1 
H      -1.18209152      -2.32927500      -1.90373780        1 
H       1.02198444      -3.33465631      -0.15007973        1 
H       1.24450062      -2.45389088      -1.65971029        1 
H       4.49728823       2.17411001      -0.82353750        1 
H       3.11070787       3.30616180      -0.91038310        1 
H      -1.40629401       3.56648622       1.09914524        1 
H      -2.20167889       2.69956280       2.44987051        1 
C      -2.58713801      -1.25142203       0.63342235        6 
C       2.20335978      -1.19796254       0.95936434        6 
O       3.29182318      -1.54276375       0.12542169        8 
H       2.07557244      -1.94034796       1.76040008        1 
H       2.36358707      -0.22113734       1.43612894        1 
C       4.54593414      -1.34973168       0.74618580        6 
H       5.30962601      -1.65546043       0.03078458        1 
H       4.64460944      -1.95708017       1.65728611        1 
H       4.70090126      -0.29377975       1.00849190        1 
O      -3.54867348      -1.05711599      -0.39066115        8 
H      -2.67536525      -0.48470674       1.40796056        1 
H      -2.71099481      -2.23895972       1.10154513        1 
C      -4.87665679      -1.01914228       0.09493805        6 
H      -5.52877443      -0.85988376      -0.76385251        1 
H      -5.01522855      -0.19650312       0.80968077        1 
H      -5.15154752      -1.96352882       0.58548013        1 
