43
Lattice="0.0 0.0 0.0 0.0 0.0 0.0 0.0 0.0 0.0" Properties=species:S:1:pos:R:3:Z:I:1 pbc="F F F"
C      -0.73825431      -0.12422153       0.73219679        6 
C       0.83324257       0.06518147       0.72206512        6 
C      -1.16593631      -1.47139680       0.15516136        6 
C       1.61137659      -1.11812164       0.18150120        6 
O      -2.13940947      -1.41824519      -0.76416079        8 
O      -0.66809593      -2.51145102       0.51824388        8 
O       2.13592992      -1.83762893       1.18817514        8 
O       1.78973362      -1.37108127      -0.98696774        8 
C       2.78519926      -3.06211605       0.80714556        6 
C      -2.55880596      -2.68231231      -1.31449522        6 
C      -1.18424297       1.21804574       0.07410694        6 
C      -0.85636347       2.35514045       1.09067100        6 
C       0.66759055       2.54672102       0.87725843        6 
C       0.97374118       1.39165022      -0.09993813        6 
O      -0.18874484       1.39626840      -0.94578983        8 
H      -1.08669837      -0.16820431       1.76596636        1 
H       1.18425580       0.21996004       1.73982451        1 
H       3.61334579      -2.86269439       0.12543538        1 
H      -2.99055448      -3.31114088      -0.53474592        1 
H      -1.41489960       3.25621908       0.83476127        1 
H      -1.12501431       2.08145963       2.11130728        1 
H       0.88341238       3.49944634       0.38942957        1 
H       1.25906002       2.49058497       1.79095623        1 
H       3.14759242      -3.49967068       1.73485237        1 
H       2.06536087      -3.72561177       0.32547373        1 
H      -1.71169111      -3.19643087      -1.76905884        1 
H      -3.30644426      -2.43341332      -2.06470875        1 
C      -2.56566022       1.33806990      -0.53931570        6 
C       2.22126688       1.54610473      -0.94417304        6 
O       3.33407924       1.35238343      -0.08316252        8 
H       2.24257278       2.55126109      -1.38865163        1 
H       2.21648646       0.80250237      -1.74577771        1 
C       4.55521253       1.20139919      -0.78308366        6 
H       5.33488628       1.04559495      -0.03690742        1 
H       4.79604384       2.09876284      -1.37004190        1 
H       4.51762961       0.33497050      -1.45640140        1 
O      -3.50956093       1.02883196       0.47317195        8 
H      -2.66699434       0.66303227      -1.39083989        1 
H      -2.70245528       2.37096096      -0.89164230        1 
C      -4.83610414       0.97400346      -0.01170107        6 
H      -5.48151008       0.74259139       0.83611139        1 
H      -4.94730468       0.19058718      -0.77395879        1 
H      -5.14620687       1.93517194      -0.44560928        1 
