43
Lattice="0.0 0.0 0.0 0.0 0.0 0.0 0.0 0.0 0.0" Properties=species:S:1:pos:R:3:Z:I:1 pbc="F F F"
C      -0.84346596       0.30739441      -0.66415385        6 
C       0.66831444      -0.04619856      -0.75732586        6 
C      -1.20753123       1.38952960       0.34943842        6 
C       1.65450310       1.10434306      -0.70374081        6 
O      -0.15236808       1.83346009       1.05903306        8 
O      -2.34263291       1.71881301       0.60154072        8 
O       1.13015303       2.17924179      -1.33982298        8 
O       2.80874462       1.04781062      -0.36060461        8 
C       1.99788057       3.31501271      -1.48271269        6 
C      -0.43917433       2.75782297       2.12162101        6 
C      -1.35412731      -1.06732036      -0.08541176        6 
C      -1.00292199      -2.20787321      -1.08903246        6 
C       0.47537684      -2.51449823      -0.73041324        6 
C       0.79404436      -1.30738066       0.17325048        6 
O      -0.40282779      -1.25115463       0.97927037        8 
H      -1.30575867       0.55183186      -1.61792712        1 
H       0.84242717      -0.39608665      -1.78176156        1 
H       2.90308677       3.04228859      -2.02731681        1 
H      -1.08571506       2.29082425       2.86597950        1 
H      -1.65338139      -3.06697892      -0.92572388        1 
H      -1.14288773      -1.88874408      -2.12262926        1 
H       0.56269706      -3.43411702      -0.14908923        1 
H       1.14299926      -2.58501639      -1.58829011        1 
H       1.42218636       4.05163238      -2.03915661        1 
H       2.27397392       3.70779745      -0.50232871        1 
H      -0.92819678       3.65007339       1.72802321        1 
H       0.52667605       3.00731729       2.55545754        1 
C      -2.76651726      -1.16045175       0.45318777        6 
C       2.00563147      -1.45202205       1.06856112        6 
O       3.08259914      -1.90148894       0.26602183        8 
H       1.76942255      -2.18971872       1.84929030        1 
H       2.24452168      -0.49887023       1.55040874        1 
C       4.35042718      -1.66066844       0.84759755        6 
H       5.09710284      -2.05574895       0.15797856        1 
H       4.45334219      -2.17262953       1.81536076        1 
H       4.51687521      -0.58568019       0.98391122        1 
O      -3.64471180      -1.02320268      -0.64990928        8 
H      -2.96084830      -0.39021340       1.20369627        1 
H      -2.88810631      -2.14616177       0.92745672        1 
C      -4.99654316      -0.86792022      -0.25996074        6 
H      -5.58544706      -0.77832095      -1.17311243        1 
H      -5.12901309       0.03683220       0.34695477        1 
H      -5.35196731      -1.73799108       0.31067596        1 
