43
Lattice="0.0 0.0 0.0 0.0 0.0 0.0 0.0 0.0 0.0" Properties=species:S:1:pos:R:3:Z:I:1 pbc="F F F"
C      -0.82885528       0.17093501      -0.69417964        6 
C       0.73058752      -0.06639665      -0.68789074        6 
C      -1.41517327       1.47486597      -0.16539703        6 
C       1.61117779       0.99784013      -0.05258082        6 
O      -0.49724556       2.42147107       0.07915354        8 
O      -2.60244633       1.67837023      -0.06836647        8 
O       2.17910531       1.75635752      -1.01629828        8 
O       1.83602213       1.14473661       1.12291905        8 
C       3.04056242       2.80738077      -0.55544624        6 
C      -0.98944192       3.69034718       0.54510972        6 
C      -1.33860837      -1.14039088       0.01516291        6 
C      -1.17264672      -2.30874059      -0.98980184        6 
C       0.36014673      -2.53700778      -0.95515479        6 
C       0.81023282      -1.44905677       0.04976305        6 
O      -0.29372335      -1.38966733       0.96677820        8 
H      -1.18075315       0.15952938      -1.72840058        1 
H       1.07904306      -0.17006294      -1.71290925        1 
H       3.87860501       2.39581134       0.00975304        1 
H      -1.53486506       3.56272071       1.48081954        1 
H      -1.71681117      -3.18100124      -0.62527947        1 
H      -1.56770600      -2.06429414      -1.97515488        1 
H       0.60663975      -3.52448581      -0.56084978        1 
H       0.84705121      -2.43310145      -1.92482953        1 
H       3.39509158       3.30963420      -1.45311777        1 
H       2.48835211       3.50177853       0.08028621        1 
H      -1.64703808       4.14045926      -0.19976847        1 
H      -0.10412608       4.30239582       0.70088295        1 
C      -2.67983406      -1.12982524       0.71988400        6 
C       2.08566823      -1.76027522       0.80681806        6 
O       3.16130929      -1.60941088      -0.10857926        8 
H       2.03986308      -2.79152458       1.18473241        1 
H       2.19285549      -1.07656300       1.65295131        1 
C       4.42958935      -1.73486529       0.50605288        6 
H       5.17939969      -1.59004515      -0.27224390        1 
H       4.56314152      -2.73085611       0.95097477        1 
H       4.56681714      -0.97639531       1.28816126        1 
O      -3.68662969      -1.16646913      -0.27553788        8 
H      -2.78868790      -0.24762421       1.35706515        1 
H      -2.73334190      -2.02441098       1.35781025        1 
C      -4.95791839      -0.77033115       0.20457209        6 
H      -5.65467675      -0.85495848      -0.62988754        1 
H      -4.93536905       0.26897582       0.55327640        1 
H      -5.29955295      -1.42172912       1.02191809        1 
