43
Lattice="0.0 0.0 0.0 0.0 0.0 0.0 0.0 0.0 0.0" Properties=species:S:1:pos:R:3:Z:I:1 pbc="F F F"
C      -0.89960229       0.12619867      -0.63460188        6 
C       0.66634916      -0.05873473      -0.70035017        6 
C      -1.37536114       1.37779467       0.09325797        6 
C       1.48453468       1.04964358      -0.07058556        6 
O      -0.72501577       2.45669830      -0.39812477        8 
O      -2.26385200       1.46618841       0.90117356        8 
O       2.15382866       1.74336486      -1.01124337        8 
O       1.57686703       1.27331665       1.11364292        8 
C       2.97516802       2.81713257      -0.52770043        6 
C      -1.04406774       3.72181260       0.20709463        6 
C      -1.33224337      -1.25014149      -0.04887725        6 
C      -1.06385953      -2.32625347      -1.14142771        6 
C       0.46991277      -2.53088264      -1.02138955        6 
C       0.82808695      -1.44883493       0.01985905        6 
O      -0.29397583      -1.50047142       0.91219407        8 
H      -1.29124571       0.24389798      -1.64758231        1 
H       0.98607779      -0.13628077      -1.73646619        1 
H       3.77051377       2.43033698       0.11208009        1 
H      -0.75332732       3.71480921       1.25875188        1 
H      -1.61073218      -3.23927821      -0.90285867        1 
H      -1.38782325      -1.99718094      -2.12916492        1 
H       0.70705710      -3.51662047      -0.61626418        1 
H       1.01376309      -2.40872502      -1.95809592        1 
H       3.39413835       3.28637004      -1.41530139        1 
H       2.37556790       3.53125524       0.03914922        1 
H      -2.11175942       3.92852572       0.12517719        1 
H      -0.46686058       4.45991379      -0.34563474        1 
C      -2.68835790      -1.36611071       0.61638139        6 
C       2.10415847      -1.66884111       0.80509884        6 
O       3.19048284      -1.41170498      -0.07255095        8 
H       2.13441486      -2.70501422       1.17038892        1 
H       2.12846168      -0.99035747       1.66314369        1 
C       4.44550577      -1.44252910       0.58078511        6 
H       5.20340461      -1.21268777      -0.16861979        1 
H       4.65180497      -2.43424428       1.00680554        1 
H       4.49139722      -0.69603400       1.38526233        1 
O      -3.66330170      -1.04082407      -0.36233749        8 
H      -2.75085983      -0.68966648       1.47035036        1 
H      -2.82199412      -2.40038825       0.96645791        1 
C      -4.95304121      -0.85567806       0.19089696        6 
H      -5.62487655      -0.61299453      -0.63311095        1 
H      -4.95449925      -0.03176611       0.91571309        1 
H      -5.31201749      -1.76926489       0.68609910        1 
