43
Lattice="0.0 0.0 0.0 0.0 0.0 0.0 0.0 0.0 0.0" Properties=species:S:1:pos:R:3:Z:I:1 pbc="F F F"
C      -0.84647820      -0.00879405      -0.66506607        6 
C       0.70484489       0.26205601      -0.63791891        6 
C      -1.74593908       1.17749101      -0.35315826        6 
C       1.08226444       1.45631962       0.24471061        6 
O      -1.72512007       2.02458583      -1.40612347        8 
O      -2.48781314       1.31029597       0.58756725        8 
O       2.31990681       1.37024870       0.76125396        8 
O       0.40007355       2.44338571       0.37979072        8 
C       2.77252192       2.51375096       1.51107827        6 
C      -2.45177130       3.25125281      -1.23346474        6 
C      -0.96695738      -1.33613263       0.16279923        6 
C      -0.71597237      -2.47535949      -0.84433311        6 
C       0.76193646      -2.20060707      -1.21499851        6 
C       1.17891174      -1.14451364      -0.14277749        6 
O       0.25153902      -1.36860297       0.93477097        8 
H      -1.10713766      -0.23618229      -1.69988629        1 
H       1.09219346       0.49297304      -1.63176324        1 
H       2.10730869       2.70523701       2.35371186        1 
H      -2.02104606       3.82159949      -0.40903343        1 
H      -0.82896262      -3.43488625      -0.33567878        1 
H      -1.40378184      -2.45153552      -1.68902607        1 
H       1.38083381      -3.09353094      -1.12537524        1 
H       0.89201509      -1.81793822      -2.22834769        1 
H       3.76926748       2.25156084       1.85944909        1 
H       2.80851346       3.39667307       0.87156958        1 
H      -3.50465039       3.05008108      -1.03017045        1 
H      -2.33922171       3.79104712      -2.17157818        1 
C      -2.15948260      -1.52787428       1.07315427        6 
C       2.59537015      -1.35848693       0.35452333        6 
O       3.47228398      -1.05167537      -0.71606957        8 
H       2.69816105      -2.41459704       0.64484359        1 
H       2.80756664      -0.73919984       1.22757421        1 
C       4.83379301      -1.10049960      -0.34104582        6 
H       5.42215030      -0.85890388      -1.22665415        1 
H       5.11778185      -2.10083309       0.01572931        1 
H       5.05409440      -0.36901040       0.44876254        1 
O      -3.30567088      -1.61646484       0.24092844        8 
H      -2.24660525      -0.69048980       1.76872961        1 
H      -2.02118255      -2.45783963       1.64440240        1 
C      -4.51830150      -1.42124290       0.94601107        6 
H      -5.32754001      -1.51261283       0.22068592        1 
H      -4.54787270      -0.42392827       1.40098603        1 
H      -4.65395089      -2.18139311       1.72852084        1 
