43
Lattice="0.0 0.0 0.0 0.0 0.0 0.0 0.0 0.0 0.0" Properties=species:S:1:pos:R:3:Z:I:1 pbc="F F F"
C      -0.80480663       0.15682656      -0.72795274        6 
C       0.74548772      -0.08566334      -0.75351243        6 
C      -1.31838263       1.34664255       0.06543750        6 
C       1.59921910       1.13487516      -0.45284084        6 
O      -0.43849605       1.78747899       0.98006269        8 
O      -2.43515395       1.79419070      -0.04792267        8 
O       1.28860291       2.10211279      -1.35203346        8 
O       2.46280748       1.26468435       0.37518677        8 
C       1.99290540       3.34625243      -1.20704498        6 
C      -0.86465233       2.87192055       1.82137019        6 
C      -1.26704626      -1.17934079      -0.03837792        6 
C      -0.97446691      -2.35733733      -1.00741988        6 
C       0.54794933      -2.56732623      -0.79781780        6 
C       0.89029744      -1.37507361       0.12521636        6 
O      -0.26908512      -1.33103900       0.98085665        8 
H      -1.23265309       0.24738684      -1.72405120        1 
H       1.02313348      -0.33346993      -1.78072275        1 
H       3.06844356       3.19304088      -1.30742253        1 
H      -1.71499997       2.56580712       2.43257879        1 
H      -1.54994825      -3.23431706      -0.70876778        1 
H      -1.25277840      -2.11765253      -2.03363767        1 
H       0.75260050      -3.50066649      -0.26974780        1 
H       1.13174795      -2.56479548      -1.71785294        1 
H       1.62072496       3.98581985      -2.00452072        1 
H       1.78371475       3.78879577      -0.23136890        1 
H      -1.14918753       3.73413372       1.21624278        1 
H      -0.00604208       3.10298343       2.44763999        1 
C      -2.65226461      -1.20990455       0.57348878        6 
C       2.13747183      -1.55610715       0.96235876        6 
O       3.22721839      -1.68007033       0.06176972        8 
H       2.02708721      -2.46933764       1.56552029        1 
H       2.27671004      -0.70332776       1.63003537        1 
C       4.48395700      -1.49824666       0.68774119        6 
H       5.24596758      -1.61768671      -0.08323315        1 
H       4.65279674      -2.24764515       1.47416067        1 
H       4.56055399      -0.49431258       1.12260923        1 
O      -3.58119722      -1.18459649      -0.49382338        8 
H      -2.80777389      -0.35944898       1.24680565        1 
H      -2.75598356      -2.13219110       1.16384706        1 
C      -4.89512676      -0.84981203      -0.08527887        6 
H      -5.51983676      -0.86561577      -0.97851342        1 
H      -4.92273781       0.15384170       0.35662140        1 
H      -5.28906774      -1.57717866       0.63896931        1 
