43
Lattice="0.0 0.0 0.0 0.0 0.0 0.0 0.0 0.0 0.0" Properties=species:S:1:pos:R:3:Z:I:1 pbc="F F F"
C      -0.86241440       0.22016167      -0.61371574        6 
C       0.68962915      -0.04465129      -0.70079687        6 
C      -1.32758430       1.33946976       0.32441095        6 
C       1.61877938       1.13072291      -0.45519181        6 
O      -0.42827883       2.33444728       0.43213098        8 
O      -2.38604912       1.36831197       0.90311188        8 
O       1.53775772       1.97252163      -1.51309923        8 
O       2.41658215       1.27502823       0.43660570        8 
C       2.33490163       3.16193564      -1.43190307        6 
C      -0.77337228       3.41434877       1.31892014        6 
C      -1.31003412      -1.19273936      -0.10877149        6 
C      -0.92164482      -2.24918013      -1.18885468        6 
C       0.56993785      -2.51311365      -0.86748404        6 
C       0.84495255      -1.36984383       0.12963781        6 
O      -0.34609361      -1.40776690       0.93954219        8 
H      -1.28309338       0.44785703      -1.59460108        1 
H       0.89504451      -0.28564481      -1.74516084        1 
H       3.39151187       2.91289053      -1.32340883        1 
H      -0.94523035       3.03488138       2.32657401        1 
H      -1.53231365      -3.14490053      -1.07533479        1 
H      -1.08891939      -1.87038322      -2.19823264        1 
H       0.70712391      -3.47069584      -0.36119362        1 
H       1.22978555      -2.48543202      -1.73413943        1 
H       2.16028852       3.69489491      -2.36431877        1 
H       2.02050793       3.77074761      -0.58196098        1 
H      -1.67066839       3.92327421       0.96478394        1 
H       0.08347303       4.08385873       1.30325223        1 
C      -2.71371949      -1.39376474       0.42758405        6 
C       2.06676755      -1.55189610       1.00226216        6 
O       3.18601044      -1.64617972       0.13476072        8 
H       1.94713143      -2.47698462       1.58502813        1 
H       2.17589779      -0.70967771       1.68934732        1 
C       4.42047623      -1.45773969       0.80198376        6 
H       5.20719336      -1.55695289       0.05322849        1 
H       4.57453690      -2.21611158       1.58274998        1 
H       4.47126595      -0.45918412       1.25275375        1 
O      -3.60940662      -1.11977082      -0.63740801        8 
H      -2.90749373      -0.74235227       1.28033338        1 
H      -2.80891037      -2.44103032       0.75162486        1 
C      -4.95992054      -1.06963632      -0.21752798        6 
H      -5.56497642      -0.86743545      -1.10193366        1 
H      -5.11352273      -0.26945547       0.51758382        1 
H      -5.27903696      -2.02554134       0.22218276        1 
