43
Lattice="0.0 0.0 0.0 0.0 0.0 0.0 0.0 0.0 0.0" Properties=species:S:1:pos:R:3:Z:I:1 pbc="F F F"
C      -0.80952609       0.08116518      -0.66936118        6 
C       0.74977877       0.28710330      -0.59135091        6 
C      -1.71548212       1.29731848      -0.56281335        6 
C       1.13605600       1.42382804       0.37441035        6 
O      -1.32839479       2.20920257      -1.47501344        8 
O      -2.76363040       1.36519977       0.03211150        8 
O       2.05747258       1.08485627       1.29178242        8 
O       0.69696050       2.54595578       0.30296377        8 
C       2.46547913       2.13140219       2.19173997        6 
C      -2.08309404       3.42932485      -1.51989593        6 
C      -1.02451257      -1.21879916       0.18677074        6 
C      -0.84698179      -2.38640425      -0.80254151        6 
C       0.63548792      -2.17658808      -1.20376127        6 
C       1.13129360      -1.15435716      -0.12796167        6 
O       0.19431809      -1.32618807       0.95403944        8 
H      -1.01004177      -0.19838968      -1.70823134        1 
H       1.16693376       0.55004485      -1.56299224        1 
H       1.61219803       2.49092784       2.76821666        1 
H      -1.96514310       3.97222361      -0.58057283        1 
H      -0.98868854      -3.33089271      -0.27352278        1 
H      -1.54910270      -2.35067218      -1.63514502        1 
H       1.21177546      -3.09972858      -1.14038131        1 
H       0.75845025      -1.78730744      -2.21603639        1 
H       3.20471499       1.67456615       2.84640962        1 
H       2.90125285       2.96331681       1.63692842        1 
H      -3.14024043       3.22487505      -1.69631025        1 
H      -1.65834483       4.00230799      -2.34124134        1 
C      -2.21913972      -1.31871963       1.11156036        6 
C       2.54455574      -1.45733925       0.34063016        6 
O       3.42809208      -1.01249670      -0.67694383        8 
H       2.64060486      -2.54381893       0.48250854        1 
H       2.75814281      -0.96482034       1.28871617        1 
C       4.78806274      -1.22030228      -0.35086526        6 
H       5.38195349      -0.84523390      -1.18477891        1 
H       5.00796867      -2.28750782      -0.20547650        1 
H       5.06555547      -0.67613945       0.56258162        1 
O      -3.36064479      -1.55861316       0.30674661        8 
H      -2.33666502      -0.40005889       1.69364896        1 
H      -2.04918557      -2.15694079       1.80288546        1 
C      -4.57887220      -1.28017118       0.97173701        6 
H      -5.38308794      -1.50410105       0.27002891        1 
H      -4.63221746      -0.22364718       1.25913578        1 
H      -4.70216804      -1.90849354       1.86596744        1 
