43
Lattice="0.0 0.0 0.0 0.0 0.0 0.0 0.0 0.0 0.0" Properties=species:S:1:pos:R:3:Z:I:1 pbc="F F F"
C      -0.91906297       0.20099806      -0.83669030        6 
C       0.63517072       0.05477391      -0.84556080        6 
C      -1.50026007       1.45445890      -0.19149375        6 
C       1.45049061       1.31822931      -0.63161254        6 
O      -1.19068929       1.57526622       1.11000127        8 
O      -2.25180807       2.20141494      -0.77164063        8 
O       2.74336115       1.08172759      -0.94072170        8 
O       1.05121296       2.39923958      -0.27601721        8 
C       3.64402322       2.19274441      -0.79076235        6 
C      -1.62257032       2.78899315       1.74431088        6 
C      -1.29797289      -1.09634161      -0.04780215        6 
C      -0.91023642      -2.33465299      -0.90591874        6 
C       0.61831406      -2.44062426      -0.64639962        6 
C       0.86008569      -1.14824333       0.16164560        6 
O      -0.30814892      -1.10505449       0.99132229        8 
H      -1.32544613       0.18480318      -1.84506050        1 
H       0.94903056      -0.28843642      -1.83312570        1 
H       3.65023875       2.54395631       0.24270398        1 
H      -2.70472644       2.90584515       1.66586746        1 
H      -1.44345503      -3.21701901      -0.54954810        1 
H      -1.16749506      -2.19766017      -1.95648469        1 
H       0.86120926      -3.30612010      -0.02747073        1 
H       1.22431443      -2.49094332      -1.54992867        1 
H       4.62250065       1.80946183      -1.07164617        1 
H       3.34996967       3.01476341      -1.44515147        1 
H      -1.12914120       3.64273680       1.27688670        1 
H      -1.31955146       2.69560850       2.78510640        1 
C      -2.68981052      -1.15444991       0.54729796        6 
C       2.08891450      -1.13803537       1.04807156        6 
O       3.19348309      -1.59961049       0.29578237        8 
H       1.89774642      -1.79898714       1.90594264        1 
H       2.27374931      -0.12867752       1.44084127        1 
C       4.42764919      -1.40973658       0.95533664        6 
H       5.20716410      -1.79246048       0.29618443        1 
H       4.46558836      -1.95460075       1.90953117        1 
H       4.61369212      -0.34424730       1.15161637        1 
O      -3.60349661      -1.19874668      -0.53412354        8 
H      -2.87649233      -0.28241472       1.18509053        1 
H      -2.77564211      -2.05560564       1.17229254        1 
C      -4.95424530      -1.09461585      -0.12591629        6 
H      -5.56485952      -1.13322711      -1.02797233        1 
H      -5.14032033      -0.14454703       0.39282654        1 
H      -5.23851951      -1.92411444       0.53704105        1 
