43
Lattice="0.0 0.0 0.0 0.0 0.0 0.0 0.0 0.0 0.0" Properties=species:S:1:pos:R:3:Z:I:1 pbc="F F F"
C      -0.70582890      -0.01572445       0.84362404        6 
C       0.87033200      -0.03541283       0.87817992        6 
C      -1.34824318      -1.36314955       0.53091375        6 
C       1.53943204      -1.34815210       0.50231717        6 
O      -2.57966234      -1.25725094       0.00166844        8 
O      -0.85588961      -2.42714960       0.81800330        8 
O       1.34976815      -1.66499399      -0.79740296        8 
O       2.17938104      -2.02188913       1.26793903        8 
C       1.81686999      -2.96446998      -1.19630403        6 
C      -3.28901139      -2.49488857      -0.19697447        6 
C      -0.96806406       1.24108939      -0.06214912        6 
C      -0.61168390       2.49300004       0.78887102        6 
C       0.93804569       2.46862370       0.75600928        6 
C       1.20334190       1.17968409      -0.05608963        6 
O       0.11945338       1.17554418      -0.99702645        8 
H      -1.07923038       0.19561426       1.84992451        1 
H       1.22543425       0.16126451       1.88698512        1 
H       1.28265033      -3.73424288      -0.63717736        1 
H      -3.40635205      -3.02250971       0.75028579        1 
H      -1.00873582       3.38799415       0.30801970        1 
H      -1.03268530       2.44315554       1.79268853        1 
H       1.33853657       3.32886395       0.21630322        1 
H       1.40410793       2.44246197       1.74030071        1 
H       1.59762765      -3.03821285      -2.25972477        1 
H       2.88848389      -3.06310363      -1.01658357        1 
H      -2.75331022      -3.13295746      -0.90110332        1 
H      -4.25867806      -2.20880976      -0.59892973        1 
C      -2.26247103       1.39319879      -0.83477049        6 
C       2.52289156       1.14700590      -0.79968156        6 
O       3.55017366       1.06868878       0.17278022        8 
H       2.61934320       2.06284223      -1.40111198        1 
H       2.55367620       0.28634627      -1.47628339        1 
C       4.83600857       0.88736022      -0.38777566        6 
H       5.53973670       0.81323243       0.44120979        1 
H       5.11925039       1.73564828      -1.02679438        1 
H       4.88453669      -0.03503780      -0.98246054        1 
O      -3.30973094       1.58905794       0.09870193        8 
H      -2.45194372       0.51867632      -1.46213310        1 
H      -2.15993433       2.27238840      -1.48785938        1 
C      -4.58961870       1.54694796      -0.49672683        6 
H      -5.32117607       1.70067050       0.29706449        1 
H      -4.77355552       0.57411738      -0.97332449        1 
H      -4.70996070       2.33712185      -1.25178034        1 
