43
Lattice="0.0 0.0 0.0 0.0 0.0 0.0 0.0 0.0 0.0" Properties=species:S:1:pos:R:3:Z:I:1 pbc="F F F"
C      -0.66133809      -0.02993244      -0.71338855        6 
C       0.86659247       0.30497738      -0.62455398        6 
C      -1.65292753       1.11551385      -0.64848082        6 
C       1.24373904       1.35887907       0.43121082        6 
O      -1.29716647       2.04928737      -1.56268139        8 
O      -2.71138467       1.13599447      -0.07173484        8 
O       0.26557114       2.26294546       0.63653137        8 
O       2.26323562       1.37125864       1.07563353        8 
C       0.49772556       3.22874936       1.67768433        6 
C      -2.17322464       3.17953574      -1.68130713        6 
C      -0.78436747      -1.31765477       0.17918251        6 
C      -0.52722944      -2.49537068      -0.77952271        6 
C       0.93318332      -2.18437855      -1.19904900        6 
C       1.35918870      -1.10662291      -0.15176348        6 
O       0.44121735      -1.31761961       0.94198996        8 
H      -0.82506271      -0.35431878      -1.74643243        1 
H       1.28510162       0.60897069      -1.58402585        1 
H       1.36741401       3.84337447       1.44091970        1 
H      -2.22877668       3.71825517      -0.73330070        1 
H      -0.59300461      -3.43328927      -0.22486536        1 
H      -1.23712780      -2.53230211      -1.60541192        1 
H       1.57905097      -3.05870004      -1.12253067        1 
H       1.01971803      -1.80811327      -2.21969042        1 
H      -0.40454827       3.83522329       1.71372408        1 
H       0.66072181       2.72541222       2.63149943        1 
H      -3.17630864       2.86275827      -1.97213075        1 
H      -1.73258021       3.81050389      -2.45034665        1 
C      -1.96604337      -1.46728243       1.11263505        6 
C       2.78888381      -1.29363457       0.31903463        6 
O       3.63193039      -0.97020511      -0.77583690        8 
H       2.91944702      -2.34807753       0.60584008        1 
H       3.00922273      -0.66403338       1.18073588        1 
C       5.00379710      -0.97832450      -0.42974190        6 
H       5.56379927      -0.71472358      -1.32748090        1 
H       5.32484243      -1.97253431      -0.08707143        1 
H       5.21723144      -0.24499390       0.35874313        1 
O      -3.09117515      -1.81509013       0.32517238        8 
H      -2.14374275      -0.53646569       1.66014053        1 
H      -1.73668538      -2.26435930       1.83480710        1 
C      -4.32243140      -1.60421781       0.99092232        6 
H      -5.11195028      -1.91936069       0.30788373        1 
H      -4.45595758      -0.54371138       1.23506557        1 
H      -4.38870806      -2.20158666       1.91168582        1 
