43
Lattice="0.0 0.0 0.0 0.0 0.0 0.0 0.0 0.0 0.0" Properties=species:S:1:pos:R:3:Z:I:1 pbc="F F F"
C      -0.66949853       0.08142715       0.86274002        6 
C       0.90479986      -0.00867230       0.73141967        6 
C      -1.46454933      -1.18083054       0.58373705        6 
C       1.49293213      -1.28354620       0.13157034        6 
O      -1.58778777      -1.43479951      -0.73868342        8 
O      -1.89685557      -1.90868712       1.44050335        8 
O       0.84731365      -2.36821402       0.59829056        8 
O       2.48018692      -1.36410268      -0.55690051        8 
C       1.34307932      -3.64962172       0.17580777        6 
C      -2.27901138      -2.64641368      -1.07944119        6 
C      -0.97286709       1.34675512      -0.01756396        6 
C      -0.65347436       2.57773520       0.86005749        6 
C       0.89310666       2.49830114       0.93052042        6 
C       1.19914189       1.31800719      -0.03760232        6 
O       0.10397936       1.36567705      -0.96729626        8 
H      -0.91710140       0.29856284       1.89995920        1 
H       1.34813230       0.02998878       1.72924495        1 
H       2.37725595      -3.78388267       0.49587394        1 
H      -3.30299123      -2.62214913      -0.70258977        1 
H      -0.98057881       3.48278539       0.34442094        1 
H      -1.14874549       2.54146288       1.83035490        1 
H       1.36227278       3.41150462       0.56242672        1 
H       1.27800943       2.31225996       1.93347921        1 
H       0.69434523      -4.37874127       0.65613919        1 
H       1.28879903      -3.73792757      -0.91059883        1 
H      -1.76440662      -3.50988821      -0.65460191        1 
H      -2.27100932      -2.69176404      -2.16669772        1 
C      -2.29682144       1.39508815      -0.75430720        6 
C       2.50921107       1.46848505      -0.78406246        6 
O       3.54846604       1.40762082       0.17884436        8 
H       2.50858516       2.44452684      -1.29179131        1 
H       2.61921118       0.68182778      -1.53225333        1 
C       4.82530228       1.20790905      -0.39882698        6 
H       5.54576085       1.17764713       0.41929124        1 
H       5.09229541       2.03036068      -1.07792481        1 
H       4.86099970       0.25988045      -0.94918239        1 
O      -3.31730701       1.10661757       0.18679389        8 
H      -2.29647258       0.66143212      -1.56616190        1 
H      -2.43680246       2.39663059      -1.18554516        1 
C      -4.60491973       1.03544514      -0.39409222        6 
H      -5.30521132       0.79238769       0.40504445        1 
H      -4.65155219       0.25360046      -1.16502529        1 
H      -4.89373872       1.99379744      -0.84751566        1 
