43
Lattice="0.0 0.0 0.0 0.0 0.0 0.0 0.0 0.0 0.0" Properties=species:S:1:pos:R:3:Z:I:1 pbc="F F F"
C      -0.88591026      -0.04141398       0.87113197        6 
C       0.68526338       0.04208581       0.87127205        6 
C      -1.48668105      -1.34975172       0.39088155        6 
C       1.35113084      -1.31756801       0.69752198        6 
O      -1.01156006      -1.71535410      -0.82076187        8 
O      -2.32568201      -1.97233978       0.99061936        8 
O       2.47851926      -1.30466059      -0.02952884        8 
O       0.92421125      -2.31734591       1.22514022        8 
C       3.16235914      -2.56689106      -0.14730211        6 
C      -1.47401420      -2.98211559      -1.31686272        6 
C      -1.24035278       1.16571677      -0.06491278        6 
C      -0.97971258       2.46826329       0.72720237        6 
C       0.56968857       2.53722467       0.69905531        6 
C       0.92987944       1.25252776      -0.09593409        6 
O      -0.16782129       1.15110883      -1.01850233        8 
H      -1.29550149       0.10930760       1.86629005        1 
H       1.01446195       0.33180943       1.87348779        1 
H       2.51385093      -3.30840854      -0.61561171        1 
H      -2.56015054      -2.98169018      -1.42353116        1 
H      -1.42889208       3.31432279       0.20417361        1 
H      -1.40353627       2.43142983       1.72997737        1 
H       0.91868264       3.41265848       0.14923338        1 
H       1.02982019       2.56147726       1.68653898        1 
H       4.03103149      -2.36671981      -0.77083943        1 
H       3.46910477      -2.92669557       0.83556155        1 
H      -1.17972538      -3.78087491      -0.63404367        1 
H      -0.99547818      -3.10637367      -2.28622972        1 
C      -2.57053270       1.10522392      -0.78711746        6 
C       2.22202988       1.36477424      -0.87670065        6 
O       3.27323891       1.54752489       0.05623565        8 
H       2.14415070       2.23490159      -1.54497500        1 
H       2.38684066       0.47301733      -1.48625506        1 
C       4.55302892       1.47089144      -0.53636763        6 
H       5.28609215       1.62101627       0.25674185        1 
H       4.69026682       2.24784934      -1.30198853        1 
H       4.71750276       0.48766611      -0.99838017        1 
O      -3.58851244       1.18852872       0.19226074        8 
H      -2.65232186       0.17521899      -1.36353993        1 
H      -2.63240496       1.94562262      -1.49423337        1 
C      -4.87930887       0.92329366      -0.32326764        6 
H      -5.58071578       1.01727415       0.50551562        1 
H      -4.94096505      -0.09470725      -0.73105102        1 
H      -5.15263953       1.64013641      -1.11054247        1 
