43
Lattice="0.0 0.0 0.0 0.0 0.0 0.0 0.0 0.0 0.0" Properties=species:S:1:pos:R:3:Z:I:1 pbc="F F F"
C      -0.74724416       0.10228722       0.89497432        6 
C       0.81957530      -0.00616207       0.86060085        6 
C      -1.63569472      -1.12528892       0.78964776        6 
C       1.43947557      -1.30208657       0.35640423        6 
O      -1.08800758      -2.16963175       0.14471019        8 
O      -2.75601656      -1.15213897       1.24154115        8 
O       1.30070728      -1.48889532      -0.96811611        8 
O       2.08082379      -2.04214882       1.06455670        8 
C       1.84202387      -2.71031897      -1.48870513        6 
C      -1.90489251      -3.34990744       0.03865065        6 
C      -1.01990959       1.21454839      -0.20265530        6 
C      -0.79187849       2.57390190       0.48941075        6 
C       0.74172478       2.51798257       0.72397772        6 
C       1.14144169       1.22779844      -0.04825525        6 
O       0.12654153       1.12416750      -1.05760072        8 
H      -1.03832615       0.51759625       1.85914262        1 
H       1.22737592       0.12388110       1.86012190        1 
H       1.37335640      -3.56912641      -1.00452695        1 
H      -2.83768212      -3.12310131      -0.47949736        1 
H      -1.06324319       3.37933553      -0.19535584        1 
H      -1.38064322       2.68725028       1.39862107        1 
H       1.24949138       3.38342909       0.29578106        1 
H       1.01987468       2.46114470       1.77669504        1 
H       1.61350790      -2.69895625      -2.55249196        1 
H       2.92069794      -2.75862027      -1.32749467        1 
H      -2.13125879      -3.74532121       1.02969203        1 
H      -1.31158447      -4.06103475      -0.53170850        1 
C      -2.28203357       1.09541529      -1.03149980        6 
C       2.51681943       1.27990433      -0.68325678        6 
O       3.45935082       1.28168120       0.37542556        8 
H       2.60164714       2.19546616      -1.28665529        1 
H       2.67019367       0.42043233      -1.34376039        1 
C       4.79947033       1.20440085      -0.07067176        6 
H       5.43211612       1.19161967       0.81680020        1 
H       5.06701394       2.07067007      -0.69188573        1 
H       4.97345624       0.28627145      -0.64866887        1 
O      -3.36755968       1.52706052      -0.23702379        8 
H      -2.42474924       0.05929366      -1.36788570        1 
H      -2.17414197       1.72451823      -1.92721119        1 
C      -4.62766076       1.13513171      -0.74664716        6 
H      -5.38307325       1.53202201      -0.06865512        1 
H      -4.71553741       0.04148052      -0.77840121        1 
H      -4.79876723       1.54151104      -1.75373125        1 
