43
Lattice="0.0 0.0 0.0 0.0 0.0 0.0 0.0 0.0 0.0" Properties=species:S:1:pos:R:3:Z:I:1 pbc="F F F"
C      -0.81389543      -0.02557622      -0.70965149        6 
C       0.76324383       0.14859516      -0.70347636        6 
C      -1.63054188       1.21557530      -0.38970266        6 
C       1.22838625       1.42276453       0.00078725        6 
O      -1.48606511       2.09712529      -1.39451098        8 
O      -2.41456747       1.36949744       0.51628606        8 
O       1.69402906       1.22374984       1.24747897        8 
O       1.11687449       2.52425001      -0.48119102        8 
C       2.07462261       2.40529065       1.97461669        6 
C      -2.16213502       3.35647990      -1.24983689        6 
C      -0.99326892      -1.33601774       0.13198786        6 
C      -0.73479505      -2.50459967      -0.84543670        6 
C       0.78129960      -2.32860739      -1.11473912        6 
C       1.16662828      -1.22108375      -0.08579688        6 
O       0.18648282      -1.38163407       0.95387023        8 
H      -1.10429494      -0.23792980      -1.73971767        1 
H       1.12682495       0.24871353      -1.72469844        1 
H       1.22252151       3.07828513       2.07976702        1 
H      -1.75777396       3.90201892      -0.39599283        1 
H      -0.94171693      -3.44742613      -0.33509014        1 
H      -1.35968954      -2.45709947      -1.73673404        1 
H       1.33815624      -3.24367475      -0.91047626        1 
H       1.00813490      -2.02629189      -2.13812542        1 
H       2.40276765       2.04998438       2.94912526        1 
H       2.88373022       2.92667953       1.46062918        1 
H      -3.23380653       3.20384250      -1.11461148        1 
H      -1.96106640       3.89862621      -2.17094788        1 
C      -2.22860584      -1.48512581       0.99328536        6 
C       2.56721850      -1.36716698       0.48247309        6 
O       3.46991805      -0.84979565      -0.48353172        8 
H       2.77329377      -2.43071969       0.66933414        1 
H       2.65276201      -0.82480207       1.42647644        1 
C       4.81731065      -0.89542194      -0.05590941        6 
H       5.42570715      -0.48056988      -0.85983487        1 
H       5.14060644      -1.92684596       0.14316031        1 
H       4.96610374      -0.29822077       0.85452767        1 
O      -3.34346191      -1.51878112       0.11553578        8 
H      -2.30756311      -0.65094818       1.69390688        1 
H      -2.15226107      -2.42436072       1.56051331        1 
C      -4.57576408      -1.29846053       0.77733816        6 
H      -5.36046464      -1.36488864       0.02289775        1 
H      -4.59807895      -0.30389211       1.23916809        1 
H      -4.75866442      -2.05964125       1.54905856        1 
