43
Lattice="0.0 0.0 0.0 0.0 0.0 0.0 0.0 0.0 0.0" Properties=species:S:1:pos:R:3:Z:I:1 pbc="F F F"
C      -0.68716629       0.03318109       0.86683324        6 
C       0.88735603      -0.01776818       0.87334459        6 
C      -1.32824693      -1.33390232       0.65953103        6 
C       1.50918431      -1.33217793       0.43650663        6 
O      -2.44595271      -1.32329121      -0.08318380        8 
O      -0.89600660      -2.33770119       1.17456328        8 
O       1.10650640      -1.69504900      -0.80269772        8 
O       2.28420954      -1.97293038       1.09863204        8 
C       1.54934685      -2.98716007      -1.24953402        6 
C      -3.11422080      -2.59054556      -0.23149532        6 
C      -0.94838141       1.25043919      -0.08724747        6 
C      -0.59216069       2.53180408       0.71687297        6 
C       0.95798894       2.48843854       0.71332719        6 
C       1.22258241       1.18484620      -0.07506850        6 
O       0.14201592       1.16045088      -1.01914910        8 
H      -1.02943835       0.29946454       1.87099033        1 
H       1.28281656       0.15964165       1.86991807        1 
H       1.17453804      -3.76077007      -0.57722398        1 
H      -3.43343536      -2.96859276       0.74052751        1 
H      -0.96680787       3.40880486       0.18692940        1 
H      -1.03234984       2.53438195       1.71366921        1 
H       1.38004540       3.33690217       0.17166901        1 
H       1.40484916       2.46878953       1.70650750        1 
H       1.13280881      -3.10752920      -2.24764344        1 
H       2.63919370      -3.03332107      -1.28103913        1 
H      -2.45091597      -3.31803169      -0.70097085        1 
H      -3.97477398      -2.38950947      -0.86602503        1 
C      -2.24720785       1.36345847      -0.85788807        6 
C       2.54713053       1.13075885      -0.80753137        6 
O       3.57024729       1.17680582       0.16995326        8 
H       2.61539099       1.98979493      -1.49110023        1 
H       2.61418718       0.21511502      -1.40740967        1 
C       4.86015682       0.94419675      -0.36238336        6 
H       5.56375945       0.99683337       0.46825467        1 
H       5.12851119       1.70251619      -1.11156095        1 
H       4.92533317      -0.05028467      -0.82438928        1 
O      -3.29579959       1.51648264       0.08354325        8 
H      -2.40642711       0.48296684      -1.48447966        1 
H      -2.18219555       2.24780465      -1.50878499        1 
C      -4.57691117       1.44416496      -0.50700600        6 
H      -5.30892187       1.57509625       0.29045261        1 
H      -4.73728122       0.46903735      -0.98744142        1 
H      -4.72032733       2.23473848      -1.25743810        1 
