43
Lattice="0.0 0.0 0.0 0.0 0.0 0.0 0.0 0.0 0.0" Properties=species:S:1:pos:R:3:Z:I:1 pbc="F F F"
C      -0.85095989      -0.06257443       0.77757744        6 
C       0.72230503       0.07980023       0.85793639        6 
C      -1.29780021      -1.39244504       0.15754984        6 
C       1.49674076      -1.21912840       1.01609855        6 
O      -2.02581951      -1.26988497      -0.96804790        8 
O      -1.01252862      -2.46807839       0.62162436        8 
O       2.19930863      -1.58416469      -0.07665019        8 
O       1.38829215      -1.91643345       1.99089353        8 
C       2.83415359      -2.87453944      -0.00237379        6 
C      -2.44809987      -2.50120616      -1.58110766        6 
C      -1.15890440       1.23971545      -0.01810594        6 
C      -0.68638946       2.45554535       0.84439308        6 
C       0.82488743       2.52798918       0.50921045        6 
C       1.00569871       1.18412092      -0.22730616        6 
O      -0.16753627       1.16307034      -1.06188926        8 
H      -1.27902522      -0.05001902       1.77906327        1 
H       0.91500003       0.54339069       1.82775073        1 
H       2.08969659      -3.64785822       0.19044692        1 
H      -3.07793580      -3.07308382      -0.89816389        1 
H      -1.21523731       3.36097949       0.54629921        1 
H      -0.88479816       2.29622395       1.90552621        1 
H       1.04215731       3.34738864      -0.17908939        1 
H       1.47418357       2.62528454       1.37882448        1 
H       3.30469172      -3.02145252      -0.97260244        1 
H       3.58231237      -2.88762282       0.79192073        1 
H      -1.58265760      -3.10400678      -1.86002317        1 
H      -3.00889995      -2.20450939      -2.46507910        1 
C      -2.54158493       1.44151831      -0.61517219        6 
C       2.24641176       1.08144234      -1.08485477        6 
O       3.36372088       1.17772712      -0.21604428        8 
H       2.24707803       1.90819426      -1.81052098        1 
H       2.25683171       0.13417682      -1.62984989        1 
C       4.58631390       0.86383791      -0.85158305        6 
H       5.37276529       0.96093585      -0.10265092        1 
H       4.79707731       1.55138320      -1.68300405        1 
H       4.57849338      -0.16496390      -1.23634308        1 
O      -3.48306728       1.21110992       0.42105173        8 
H      -2.70535112       0.76048154      -1.45096565        1 
H      -2.62092370       2.47494273      -0.98327163        1 
C      -4.82221337       1.30908630      -0.02227043        6 
H      -5.46234109       1.10867141       0.83715003        1 
H      -5.03505126       0.57328823      -0.81025048        1 
H      -5.04502832       2.31341576      -0.40928732        1 
