43
Lattice="0.0 0.0 0.0 0.0 0.0 0.0 0.0 0.0 0.0" Properties=species:S:1:pos:R:3:Z:I:1 pbc="F F F"
C      -0.83357945      -0.07825635       0.82593740        6 
C       0.73581604       0.10101296       0.79091363        6 
C      -1.27694486      -1.42101050       0.26809258        6 
C       1.50523000      -1.10687575       0.29840806        6 
O      -1.49482963      -1.41990390      -1.05295173        8 
O      -1.39316398      -2.40200441       0.96609316        8 
O       2.23500911      -1.64178594       1.29611207        8 
O       1.47113382      -1.56665230      -0.81897524        8 
C       2.98400120      -2.82376539       0.96291887        6 
C      -1.75026645      -2.70126364      -1.65492165        6 
C      -1.28014417       1.21477421       0.08025495        6 
C      -0.96401922       2.42105632       1.01226735        6 
C       0.56744519       2.58896917       0.80607808        6 
C       0.87161817       1.38173840      -0.10934489        6 
O      -0.28850093       1.34128760      -0.94852346        8 
H      -1.18109412      -0.07824254       1.85642817        1 
H       1.10114229       0.31193293       1.79273170        1 
H       3.68300437      -2.61512726       0.15148080        1 
H      -2.62796879      -3.17033142      -1.20787150        1 
H      -1.51142942       3.30318429       0.67699750        1 
H      -1.24843896       2.22676076       2.04696034        1 
H       0.79850459       3.51478251       0.27527375        1 
H       1.14613187       2.57271520       1.72942964        1 
H       3.51855982      -3.09311995       1.87105288        1 
H       2.30971523      -3.62720431       0.66226573        1 
H      -0.88137132      -3.34756109      -1.52540136        1 
H      -1.91587247      -2.49527357      -2.71014926        1 
C      -2.66689269       1.21892165      -0.53384882        6 
C       2.11058879       1.46917357      -0.97394408        6 
O       3.23372317       1.30201083      -0.12295470        8 
H       2.14248225       2.44541935      -1.47794075        1 
H       2.07751178       0.68176571      -1.73552499        1 
C       4.45688771       1.21868096      -0.82987440        6 
H       5.24478654       1.07246528      -0.09064276        1 
H       4.65913563       2.14080763      -1.39226060        1 
H       4.45395072       0.37169198      -1.52936347        1 
O      -3.57585276       0.80753059       0.47535929        8 
H      -2.69578521       0.53542540      -1.38695698        1 
H      -2.90963206       2.23199439      -0.88549986        1 
C      -4.90996157       0.71743747       0.01294514        6 
H      -5.51776426       0.37119782       0.84899938        1 
H      -4.99702413       0.00161797      -0.81606079        1 
H      -5.28442706       1.69425398      -0.32413590        1 
