43
Lattice="0.0 0.0 0.0 0.0 0.0 0.0 0.0 0.0 0.0" Properties=species:S:1:pos:R:3:Z:I:1 pbc="F F F"
C      -0.80234260       0.09115896      -0.72617029        6 
C       0.73733073       0.22997232      -0.63059312        6 
C      -1.69513609       1.32105293      -0.68835804        6 
C       1.20965809       1.18610320       0.45773859        6 
O      -0.99951863       2.47141977      -0.73876337        8 
O      -2.89225294       1.27726613      -0.85055547        8 
O       2.52436313       1.47144537       0.29195586        8 
O       0.53862330       1.67313252       1.32978137        8 
C       3.09369837       2.37336311       1.25597536        6 
C      -1.77396033       3.67385397      -0.88665828        6 
C      -1.10760350      -1.17809226       0.15969619        6 
C      -0.97281451      -2.38679747      -0.78583663        6 
C       0.53406569      -2.27963698      -1.15263805        6 
C       1.04733712      -1.23246553      -0.12011777        6 
O       0.09209294      -1.32487372       0.94851601        8 
H      -1.00057283      -0.22002491      -1.75787399        1 
H       1.22852086       0.46245778      -1.57236821        1 
H       3.01858023       1.95809434       2.26276007        1 
H      -2.45847856       3.78976685      -0.04540468        1 
H      -1.18829655      -3.30504897      -0.23673173        1 
H      -1.64669895      -2.33332657      -1.64023774        1 
H       1.05913006      -3.22621661      -1.02032511        1 
H       0.70862763      -1.95226812      -2.17852641        1 
H       4.13595881       2.48856200       0.96571257        1 
H       2.57913924       3.33519461       1.22945535        1 
H      -2.34637416       3.64912724      -1.81552499        1 
H      -1.04801332       4.48373574      -0.90161783        1 
C      -2.32031440      -1.15432303       1.06660209        6 
C       2.43728026      -1.52178893       0.40699266        6 
O       3.33176898      -1.43794651      -0.68651305        8 
H       2.44398595      -2.53165235       0.84285777        1 
H       2.71793008      -0.81464668       1.19595766        1 
C       4.68931727      -1.49027877      -0.29551709        6 
H       5.28850969      -1.41796408      -1.20335566        1 
H       4.92551314      -2.43410268       0.21601623        1 
H       4.94053366      -0.65318342       0.37015250        1 
O      -3.44822771      -1.54454446       0.30536899        8 
H      -2.45656791      -0.15397265       1.49331529        1 
H      -2.14889266      -1.85669012       1.89500039        1 
C      -4.67665769      -1.09992674       0.84901249        6 
H      -5.46638586      -1.47790222       0.19918274        1 
H      -4.72055222      -0.00431434       0.86749018        1 
H      -4.83311783      -1.48981620       1.86508259        1 
