43
Lattice="0.0 0.0 0.0 0.0 0.0 0.0 0.0 0.0 0.0" Properties=species:S:1:pos:R:3:Z:I:1 pbc="F F F"
C      -0.94313729       0.31732841      -0.78195104        6 
C       0.58255173       0.05124800      -0.83443518        6 
C      -1.46120518       1.48022225       0.05526269        6 
C       1.52633899       1.24146575      -0.82062319        6 
O      -0.73836910       1.71290864       1.15654179        8 
O      -2.51443583       2.02981895      -0.17902908        8 
O       2.74496573       0.83883734      -1.24702942        8 
O       1.28590193       2.38249529      -0.51557606        8 
C       3.77215407       1.84330624      -1.27490859        6 
C      -1.18731118       2.78803997       1.99531618        6 
C      -1.37786797      -1.02031647      -0.07491597        6 
C      -0.95722894      -2.23841393      -0.95406578        6 
C       0.53887012      -2.42180684      -0.56449990        6 
C       0.76927602      -1.11856888       0.22342061        6 
O      -0.43525237      -1.06357942       1.00578329        8 
H      -1.39073616       0.41601788      -1.76864317        1 
H       0.79009126      -0.39502088      -1.80942955        1 
H       3.92441287       2.26481674      -0.27962421        1 
H      -2.19126048       2.58826126       2.37401437        1 
H      -1.55735781      -3.11175108      -0.69800403        1 
H      -1.10652540      -2.03985824      -2.01611865        1 
H       0.67672917      -3.27755790       0.09885513        1 
H       1.21407198      -2.52956757      -1.41256597        1 
H       4.66912324       1.32914371      -1.61320592        1 
H       3.50546871       2.64571510      -1.96476287        1 
H      -1.19107694       3.72488987       1.43623775        1 
H      -0.47128227       2.83501896       2.81269791        1 
C      -2.79443006      -1.08851387       0.45480030        6 
C       1.95812113      -1.07166356       1.16109334        6 
O       3.08789700      -1.60677541       0.49940191        8 
H       1.71369759      -1.66519974       2.05387321        1 
H       2.14443657      -0.03848945       1.48759486        1 
C       4.28360982      -1.44145778       1.23261164        6 
H       5.08656888      -1.88372841       0.64248646        1 
H       4.23401673      -1.94784691       2.20721615        1 
H       4.50566562      -0.37799436       1.40119755        1 
O      -3.65756699      -1.12483546      -0.66566542        8 
H      -3.01680701      -0.22331075       1.09075537        1 
H      -2.90508590      -1.99575054       1.06707127        1 
C      -5.01410427      -0.89253112      -0.33238706        6 
H      -5.58397155      -0.94770527      -1.26002251        1 
H      -5.14476230       0.10219305       0.11216069        1 
H      -5.39224543      -1.65301466       0.36576220        1 
