43
Lattice="0.0 0.0 0.0 0.0 0.0 0.0 0.0 0.0 0.0" Properties=species:S:1:pos:R:3:Z:I:1 pbc="F F F"
C      -0.88684117       0.14716098      -0.61791567        6 
C       0.67719067      -0.06744563      -0.68427347        6 
C      -1.36464602       1.38190866       0.14038407        6 
C       1.53236266       1.04684187      -0.11270553        6 
O      -0.64547530       2.46217814      -0.23242925        8 
O      -2.31618854       1.46010052       0.87535630        8 
O       2.06317663       1.78700290      -1.10662816        8 
O       1.78586561       1.22498621       1.05506843        8 
C       2.90012104       2.87747303      -0.69367429        6 
C      -0.99734846       3.70879555       0.39306730        6 
C      -1.33657432      -1.23600598      -0.05592279        6 
C      -1.05969248      -2.30009162      -1.15883407        6 
C       0.46551624      -2.53462357      -1.00357895        6 
C       0.82168713      -1.45477136       0.04035319        6 
O      -0.31335318      -1.49928019       0.91864650        8 
H      -1.27891153       0.29006071      -1.62759304        1 
H       0.97601147      -0.16621601      -1.72553994        1 
H       3.75561165       2.50924601      -0.12508916        1 
H      -0.81072491       3.65443126       1.46657183        1 
H      -1.63170698      -3.20593768      -0.95488225        1 
H      -1.34968728      -1.94483138      -2.14829454        1 
H       0.67403637      -3.52176181      -0.58626385        1 
H       1.03331087      -2.42936722      -1.92800320        1 
H       3.22885028       3.35723895      -1.61309612        1 
H       2.33541443       3.57817019      -0.07603847        1 
H      -2.04813615       3.94188700       0.21706845        1 
H      -0.35558252       4.45515064      -0.06988396        1 
C      -2.70209965      -1.36143976       0.58850374        6 
C       2.08931445      -1.69402024       0.83305896        6 
O       3.18197037      -1.48855763      -0.05109134        8 
H       2.08835670      -2.72362904       1.21788823        1 
H       2.13489149      -0.99894251       1.67552586        1 
C       4.43268050      -1.48368462       0.61136722        6 
H       5.19622575      -1.30353274      -0.14596852        1 
H       4.63272221      -2.44822387       1.09858491        1 
H       4.47537837      -0.68880243       1.36780007        1 
O      -3.66491652      -1.04207516      -0.40323576        8 
H      -2.78366839      -0.68964272       1.44438552        1 
H      -2.83142599      -2.39817436       0.93314804        1 
C      -4.96352497      -0.86576367       0.13173584        6 
H      -5.62580427      -0.63034113      -0.70202396        1 
H      -4.98132832      -0.04005262       0.85418064        1 
H      -5.32214761      -1.78098479       0.62425534        1 
