43
Lattice="0.0 0.0 0.0 0.0 0.0 0.0 0.0 0.0 0.0" Properties=species:S:1:pos:R:3:Z:I:1 pbc="F F F"
C      -0.57216919       0.12980403       0.87063329        6 
C       0.96821723      -0.16541794       0.73358235        6 
C      -1.48205626      -1.08603308       0.95448049        6 
C       1.39784135      -1.40389747      -0.05576936        6 
O      -2.26242172      -1.29150100      -0.12062740        8 
O      -1.49171557      -1.80363125       1.92552578        8 
O       0.42045802      -2.31236737      -0.19852941        8 
O       2.50343520      -1.56891114      -0.51349737        8 
C       0.75808636      -3.51380562      -0.91428196        6 
C      -3.11179281      -2.44818457      -0.06165710        6 
C      -0.77138915       1.31371279      -0.14770700        6 
C      -0.43581038       2.59212853       0.64725636        6 
C       1.07191572       2.36391594       0.92187049        6 
C       1.39356881       1.15016765      -0.00325900        6 
O       0.37298225       1.21588665      -1.01876094        8 
H      -0.70214895       0.54547168       1.87149032        1 
H       1.44492701      -0.24970404       1.71130281        1 
H       1.58602190      -4.02805700      -0.42496907        1 
H      -3.81383453      -2.36745476       0.76954795        1 
H      -0.59831807       3.46503585       0.01149519        1 
H      -1.04313820       2.70272108       1.54535371        1 
H       1.67698202       3.22474618       0.63725419        1 
H       1.29316941       2.14144353       1.96647167        1 
H      -0.14060435      -4.12587905      -0.88996876        1 
H       1.03553968      -3.27725750      -1.94248440        1 
H      -2.51381053      -3.35220444       0.06363350        1 
H      -3.64311985      -2.46783129      -1.01125792        1 
C      -2.03117423       1.39440594      -0.98128103        6 
C       2.76545487       1.24187721      -0.63996557        6 
O       3.71489867       1.16497071       0.40934616        8 
H       2.83790566       2.21001432      -1.15824801        1 
H       2.91915061       0.44389541      -1.36778978        1 
C       5.03340539       0.94124085      -0.05402901        6 
H       5.67807667       0.89618285       0.82426338        1 
H       5.37513244       1.75867993      -0.70530519        1 
H       5.09977774      -0.00695891      -0.60169449        1 
O      -3.12173311       1.55354731      -0.08811130        8 
H      -2.15023044       0.49260484      -1.58716412        1 
H      -1.95136375       2.26217173      -1.65203204        1 
C      -4.37713854       1.42498392      -0.72398863        6 
H      -5.14198676       1.55999355       0.04133396        1 
H      -4.49131333       0.43077747      -1.17737210        1 
H      -4.51378194       2.18696668      -1.50435874        1 
