43
Lattice="0.0 0.0 0.0 0.0 0.0 0.0 0.0 0.0 0.0" Properties=species:S:1:pos:R:3:Z:I:1 pbc="F F F"
C      -0.91874483      -0.01655748      -0.69554991        6 
C       0.65636031      -0.06760109      -0.84924628        6 
C      -1.50185513       1.20943400       0.00865720        6 
C       1.40305178       1.24187401      -0.67018748        6 
O      -1.01366096       2.33573701      -0.54312448        8 
O      -2.36087126       1.22307483       0.85508218        8 
O       1.68810118       1.51452880       0.62242655        8 
O       1.62752583       2.00965417      -1.57079846        8 
C       2.30710803       2.78728162       0.86925338        6 
C      -1.52707706       3.57806607      -0.03515919        6 
C      -1.15736903      -1.38105508       0.02006538        6 
C      -0.77565846      -2.51737004      -0.97734820        6 
C       0.76848713      -2.55265131      -0.85138265        6 
C       1.01340958      -1.31415267       0.03774888        6 
O      -0.07698954      -1.39916638       0.96947299        8 
H      -1.37987474      -0.00619893      -1.68488307        1 
H       0.87169157      -0.31358150      -1.88807408        1 
H       1.66086995       3.59599939       0.52422898        1 
H      -1.33101147       3.66269622       1.03499062        1 
H      -1.22925722      -3.45721708      -0.66054856        1 
H      -1.12902623      -2.30827780      -1.98757207        1 
H       1.10384426      -3.44670101      -0.32184770        1 
H       1.29937324      -2.49917374      -1.80188059        1 
H       2.44612585       2.83986897       1.94720366        1 
H       3.26637572       2.85384576       0.35313765        1 
H      -2.60223989       3.64564609      -0.20854389        1 
H      -0.99961710       4.35208630      -0.58826772        1 
C      -2.47526227      -1.62019960       0.73034860        6 
C       2.32762938      -1.29988133       0.78932810        6 
O       3.35007531      -1.01430560      -0.15229942        8 
H       2.49216944      -2.28222275       1.25459201        1 
H       2.29941997      -0.53970972       1.57500647        1 
C       4.60776839      -0.78423183       0.45228009        6 
H       5.31725630      -0.57606418      -0.34876784        1 
H       4.95032536      -1.66301900       1.01605542        1 
H       4.56711752       0.07729760       1.13320637        1 
O      -3.49936696      -1.49840200      -0.24450958        8 
H      -2.61330332      -0.89917769       1.53688502        1 
H      -2.46454247      -2.63533291       1.15442951        1 
C      -4.79650479      -1.48192406       0.32087014        6 
H      -5.50486608      -1.38462623      -0.50247593        1 
H      -4.91630258      -0.63218069       1.00479627        1 
H      -5.00883430      -2.41294057       0.86585506        1 
