43
Lattice="0.0 0.0 0.0 0.0 0.0 0.0 0.0 0.0 0.0" Properties=species:S:1:pos:R:3:Z:I:1 pbc="F F F"
C      -0.72082628       0.04758518       0.85954893        6 
C       0.82136787      -0.19555780       0.74929537        6 
C      -1.53386861      -1.23632509       0.96925614        6 
C       1.15099786      -1.41291013      -0.11836273        6 
O      -2.44575772      -1.42392822       0.00448994        8 
O      -1.35664824      -2.00680740       1.88231177        8 
O       2.46293905      -1.47398591      -0.42418674        8 
O       0.38588698      -2.30226062      -0.39834961        8 
C       2.88569334      -2.64435118      -1.14869180        6 
C      -3.15249173      -2.67616759       0.05469529        6 
C      -0.95291606       1.20767921      -0.17671693        6 
C      -0.71230941       2.50653126       0.61840779        6 
C       0.78955739       2.34139047       0.96886609        6 
C       1.21168203       1.15172980       0.05032382        6 
O       0.22999179       1.17211991      -1.00534550        8 
H      -0.88903972       0.47419815       1.85132761        1 
H       1.30382975      -0.33218601       1.71676037        1 
H       2.38442224      -2.69558482      -2.11647562        1 
H      -3.71719650      -2.76150857       0.98420889        1 
H      -0.87847955       3.36671264      -0.03342078        1 
H      -1.36751802       2.59755286       1.48419572        1 
H       1.36994505       3.23167641       0.72655447        1 
H       0.96443651       2.11538748       2.02160035        1 
H       3.95980690      -2.52991974      -1.27864089        1 
H       2.66076953      -3.54700824      -0.57925407        1 
H      -2.44626613      -3.50377335      -0.02097690        1 
H      -3.82427639      -2.66389466      -0.80147881        1 
C      -2.18172484       1.20667249      -1.05717095        6 
C       2.59597534       1.33250453      -0.53997809        6 
O       3.52320146       1.26238634       0.52853126        8 
H       2.63502016       2.32006225      -1.02343840        1 
H       2.80907965       0.57224204      -1.29414510        1 
C       4.86709086       1.24453761       0.09170549        6 
H       5.49447748       1.18577189       0.98143765        1 
H       5.12204911       2.15655490      -0.46678850        1 
H       5.06361660       0.37200565      -0.54644969        1 
O      -3.30504767       1.40746414      -0.21504936        8 
H      -2.26248811       0.26167544      -1.60080578        1 
H      -2.09211402       2.02742437      -1.78397946        1 
C      -4.53485498       1.17449999      -0.87043038        6 
H      -5.32626804       1.34372568      -0.13961099        1 
H      -4.59736389       0.14134184      -1.23743715        1 
H      -4.67792337       1.86123413      -1.71710780        1 
