43
Lattice="0.0 0.0 0.0 0.0 0.0 0.0 0.0 0.0 0.0" Properties=species:S:1:pos:R:3:Z:I:1 pbc="F F F"
C      -0.71348416      -0.05656947      -0.68360149        6 
C       0.84702815       0.16476745      -0.68624519        6 
C      -1.57084668       0.99175478       0.00568805        6 
C       1.42318929       1.48074244      -0.17725012        6 
O      -2.24461616       1.71822391      -0.91206908        8 
O      -1.70396323       1.14118996       1.19545301        8 
O       0.50242473       2.45513858      -0.09596210        8 
O       2.60021211       1.68042225       0.00563558        8 
C       0.96710961       3.74932402       0.32577354        6 
C      -3.11702803       2.72920828      -0.38691546        6 
C      -0.80119380      -1.45407603       0.02667164        6 
C      -0.34304925      -2.52417343      -0.99406208        6 
C       1.19278512      -2.30850090      -0.99802087        6 
C       1.34876377      -1.14885521       0.01843505        6 
O       0.29355223      -1.41041985       0.95512867        8 
H      -1.07677737      -0.12782254      -1.70573092        1 
H       1.19535101       0.15017151      -1.72242567        1 
H       1.70540002       4.13712924      -0.37746097        1 
H      -2.55681062       3.43750765       0.22597294        1 
H      -0.60594599      -3.51830818      -0.62835286        1 
H      -0.81040563      -2.39280857      -1.97007825        1 
H       1.72231785      -3.18767881      -0.62839256        1 
H       1.60782085      -2.06158228      -1.97454805        1 
H       0.08178007       4.38076785       0.34304880        1 
H       1.41046399       3.68448197       1.31998620        1 
H      -3.90361933       2.27757911       0.22047625        1 
H      -3.54463725       3.22650267      -1.25510491        1 
C      -2.08197594      -1.77387246       0.77211578        6 
C       2.68240059      -1.14063382       0.73632679        6 
O       3.69719635      -1.14468066      -0.25221973        8 
H       2.74097027      -2.04833663       1.35493975        1 
H       2.77427516      -0.27056762       1.39217645        1 
C       4.95767235      -0.73085976       0.24184314        6 
H       5.66028893      -0.78703682      -0.59016969        1 
H       5.30838722      -1.38928765       1.04959998        1 
H       4.91132877       0.30145387       0.60787179        1 
O      -3.15597716      -1.59585737      -0.13973424        8 
H      -2.18606228      -1.10915550       1.63447898        1 
H      -2.04358160      -2.81303802       1.12856212        1 
C      -4.42520098      -1.74716625       0.46694667        6 
H      -5.17359361      -1.58244745      -0.30867091        1 
H      -4.56962704      -1.01421767       1.27202800        1 
H      -4.55447576      -2.75696602       0.88088395        1 
