43
Lattice="0.0 0.0 0.0 0.0 0.0 0.0 0.0 0.0 0.0" Properties=species:S:1:pos:R:3:Z:I:1 pbc="F F F"
C      -0.85305889       0.23015842      -0.63425450        6 
C       0.70757275       0.11231948      -0.71690723        6 
C      -1.42418519       1.30090872       0.28571519        6 
C       1.53945371       1.29137675      -0.25115973        6 
O      -2.06170564       2.24192736      -0.45522981        8 
O      -1.33408563       1.35599570       1.48272227        8 
O       2.56684010       1.48656233      -1.11158263        8 
O       1.35402530       1.98854420       0.71394975        8 
C       3.48262702       2.53789779      -0.76531862        6 
C      -2.62806109       3.33547965       0.28717524        6 
C      -1.18880560      -1.19871498      -0.08620155        6 
C      -0.80175155      -2.24697011      -1.17010231        6 
C       0.73238660      -2.37734216      -0.95402878        6 
C       0.96925981      -1.24352122       0.06428424        6 
O      -0.17518994      -1.36915230       0.91149729        8 
H      -1.27914476       0.38481721      -1.62257066        1 
H       0.98492159      -0.03941546      -1.75795710        1 
H       3.96057693       2.32773163       0.19323932        1 
H      -1.84796033       3.86588358       0.83552321        1 
H      -1.31994626      -3.18937966      -0.98743821        1 
H      -1.06943051      -1.91037682      -2.17243637        1 
H       0.98973946      -3.33346570      -0.49361530        1 
H       1.32430429      -2.26511380      -1.86184878        1 
H       4.22128668       2.55422385      -1.56384513        1 
H       2.96273714       3.49516211      -0.70157635        1 
H      -3.37688878       2.97162563       0.99304805        1 
H      -3.08787507       3.98404037      -0.45573362        1 
C      -2.55330471      -1.39224716       0.54292154        6 
C       2.21467254      -1.33995027       0.91810335        6 
O       3.34048391      -1.36489608       0.05961684        8 
H       2.15716609      -2.25944927       1.51827587        1 
H       2.26184719      -0.48722752       1.60860754        1 
C       4.56842925      -1.31686250       0.75891873        6 
H       5.36375092      -1.33504117       0.01353851        1 
H       4.68399263      -2.18023393       1.42917392        1 
H       4.65291401      -0.39730965       1.35491275        1 
O      -3.52373612      -1.07180049      -0.44089212        8 
H      -2.65558534      -0.74798898       1.42322887        1 
H      -2.65480045      -2.43841831       0.86565965        1 
C      -4.85079223      -1.19556088       0.03383109        6 
H      -5.51344849      -0.91945275      -0.78659442        1 
H      -5.03428476      -0.52715737       0.88622153        1 
H      -5.07083935      -2.22719279       0.34238792        1 
