43
Lattice="0.0 0.0 0.0 0.0 0.0 0.0 0.0 0.0 0.0" Properties=species:S:1:pos:R:3:Z:I:1 pbc="F F F"
C      -0.75677984      -0.07723039       0.79194451        6 
C       0.80990730       0.00619171       0.87838417        6 
C      -1.29341082      -1.29796018       0.06671268        6 
C       1.48282221      -1.35175300       0.71619726        6 
O      -2.60266260      -1.47193104       0.34846134        8 
O      -0.67239507      -2.04489000      -0.64781715        8 
O       2.19476666      -1.51572578      -0.40559470        8 
O       1.37820344      -2.19987011       1.57147260        8 
C       2.71371657      -2.83846376      -0.62703550        6 
C      -3.23804589      -2.59855247      -0.28118340        6 
C      -1.05608436       1.23019362      -0.02995816        6 
C      -0.73138382       2.45039940       0.87067224        6 
C       0.81621069       2.49757141       0.78203485        6 
C       1.11552918       1.22756448      -0.05193729        6 
O       0.01586195       1.22300363      -0.98193284        8 
H      -1.23179547      -0.03742985       1.76966744        1 
H       1.07172432       0.27306413       1.90284184        1 
H       1.88756067      -3.54438662      -0.72223742        1 
H      -2.72861137      -3.52449688      -0.01120449        1 
H      -1.19055251       3.35090651       0.46027663        1 
H      -1.11009520       2.31886595       1.88429723        1 
H       1.15550747       3.37736838       0.23217935        1 
H       1.31768819       2.49154114       1.74947648        1 
H       3.27340057      -2.77749302      -1.55834020        1 
H       3.36289889      -3.14098739       0.19547498        1 
H      -3.22587243      -2.48723976      -1.36722900        1 
H      -4.25997428      -2.59918606       0.09184469        1 
C      -2.37493352       1.32585391      -0.76968649        6 
C       2.42365282       1.26774026      -0.81227019        6 
O       3.46715681       1.18524715       0.14565192        8 
H       2.48415096       2.21367943      -1.37012192        1 
H       2.47285661       0.43733043      -1.51987859        1 
C       4.73747574       0.97703317      -0.43854564        6 
H       5.46069820       0.91780258       0.37532999        1 
H       5.01597828       1.80571168      -1.10495845        1 
H       4.76016876       0.03963599      -1.01040735        1 
O      -3.40464479       1.48217122       0.18651804        8 
H      -2.54336529       0.43478019      -1.38826630        1 
H      -2.33089032       2.19408107      -1.44349568        1 
C      -4.69743498       1.33960840      -0.36626541        6 
H      -5.41159311       1.47553977       0.44597865        1 
H      -4.83307624       0.33978803      -0.80134264        1 
H      -4.88978292       2.09304235      -1.14329923        1 
