43
Lattice="0.0 0.0 0.0 0.0 0.0 0.0 0.0 0.0 0.0" Properties=species:S:1:pos:R:3:Z:I:1 pbc="F F F"
C      -0.67155015      -0.17478031       0.66540327        6 
C       0.89342274      -0.04877042       0.69765475        6 
C      -1.20372341      -1.31253983      -0.19396216        6 
C       1.66189676      -1.28448840       0.24969417        6 
O      -2.54688229      -1.39975781      -0.08333223        8 
O      -0.55341059      -2.09911337      -0.83547956        8 
O       1.47825883      -2.26031425       1.17166588        8 
O       2.38739148      -1.40534783      -0.70242052        8 
C       2.04048754      -3.54101427       0.84079697        6 
C      -3.17306215      -2.46674933      -0.81806840        6 
C      -1.03857142       1.24015904       0.08161760        6 
C      -0.67211759       2.31386057       1.14298651        6 
C       0.86276770       2.42870021       0.95729467        6 
C       1.12945933       1.29809957      -0.06158878        6 
O      -0.02408164       1.39905752      -0.92062211        8 
H      -1.09835014      -0.30523415       1.65939862        1 
H       1.19437888       0.07694407       1.73911468        1 
H       3.12021913      -3.46373019       0.70576638        1 
H      -2.78870080      -3.43391604      -0.49071319        1 
H      -1.17986761       3.25131202       0.91283164        1 
H      -0.97696737       2.01430625       2.14582921        1 
H       1.13717686       3.38653792       0.51115009        1 
H       1.43604683       2.30760435       1.87615211        1 
H       1.80540982      -4.18907879       1.68277257        1 
H       1.58470339      -3.91920598      -0.07585450        1 
H      -2.99102796      -2.35370835      -1.88821721        1 
H      -4.23527495      -2.38283956      -0.59865560        1 
C      -2.39808946       1.45348656      -0.55361731        6 
C       2.39411004       1.45954969      -0.87739878        6 
O       3.48540958       1.34259094       0.02330561        8 
H       2.38804814       2.45190675      -1.35142638        1 
H       2.44097862       0.69299555      -1.65306273        1 
C       4.71341789       1.06714573      -0.62684172        6 
H       5.47510528       0.98803321       0.14979527        1 
H       4.99270373       1.87535885      -1.31772492        1 
H       4.65685552       0.12176270      -1.17941927        1 
O      -3.36773944       1.43782367       0.47651240        8 
H      -2.61042624       0.68478687      -1.30452393        1 
H      -2.38487834       2.42892407      -1.06152576        1 
C      -4.69291995       1.43123602      -0.01320378        6 
H      -5.35586290       1.41057387       0.85204026        1 
H      -4.88177935       0.54381257      -0.63302314        1 
H      -4.90814112       2.33025899      -0.60839502        1 
