43
Lattice="0.0 0.0 0.0 0.0 0.0 0.0 0.0 0.0 0.0" Properties=species:S:1:pos:R:3:Z:I:1 pbc="F F F"
C      -0.62185131      -0.01508198       0.83064050        6 
C       0.91093278      -0.28955072       0.79361621        6 
C      -1.59495441      -1.17246552       0.69406862        6 
C       1.45640188      -1.48387366       0.02291878        6 
O      -2.66516772      -0.93554057       1.48897840        8 
O      -1.49220440      -2.17212510       0.02807485        8 
O       0.89713951      -1.65162388      -1.17887326        8 
O       2.41088517      -2.12117335       0.41046778        8 
C       1.36519446      -2.76704780      -1.95204889        6 
C      -3.72892247      -1.89749290       1.41799567        6 
C      -0.77116613       1.17219682      -0.21725542        6 
C      -0.52025174       2.46035387       0.58868136        6 
C       0.97824875       2.25713180       0.96233602        6 
C       1.36964796       1.03242178       0.07970315        6 
O       0.42898496       1.09928912      -0.99849252        8 
H      -0.84942462       0.40162275       1.81032708        1 
H       1.33040678      -0.36590916       1.79451447        1 
H       1.15568023      -3.70105185      -1.42825298        1 
H      -3.37399006      -2.88736818       1.70948412        1 
H      -0.65443698       3.32818808      -0.06039472        1 
H      -1.18544566       2.56187103       1.44546026        1 
H       1.58662213       3.12226381       0.69754543        1 
H       1.13548952       2.05748879       2.02287882        1 
H       0.80949814      -2.72346833      -2.88599686        1 
H       2.43809791      -2.68804545      -2.13624690        1 
H      -4.13104886      -1.94675285       0.40431608        1 
H      -4.48800952      -1.54168558       2.11125178        1 
C      -1.94968055       1.15171274      -1.16673177        6 
C       2.78501513       1.05850105      -0.45747625        6 
O       3.65742915       1.06118821       0.65570808        8 
H       2.92174227       1.96229689      -1.06950090        1 
H       2.97145716       0.18828593      -1.09949016        1 
C       5.00479451       0.79790092       0.30905396        6 
H       5.58247139       0.82307816       1.23299926        1 
H       5.39819448       1.55803053      -0.38086818        1 
H       5.10620368      -0.19319685      -0.15164501        1 
O      -3.13019435       1.42292719      -0.43504464        8 
H      -2.00883617       0.17363442      -1.66478574        1 
H      -1.78490488       1.91561576      -1.94031352        1 
C      -4.30027002       1.32072641      -1.22224204        6 
H      -5.14537087       1.55039097      -0.57303603        1 
H      -4.42171457       0.30636521      -1.62787136        1 
H      -4.28612765       2.03305597      -2.05925264        1 
