43
Lattice="0.0 0.0 0.0 0.0 0.0 0.0 0.0 0.0 0.0" Properties=species:S:1:pos:R:3:Z:I:1 pbc="F F F"
C      -0.76752599      -0.03673134      -0.77155110        6 
C       0.78893216       0.11689177      -0.77589600        6 
C      -1.57179052       1.22520359      -0.51078871        6 
C       1.34195304       1.31559820      -0.02436535        6 
O      -0.94286366       2.29233216      -1.05570140        8 
O      -2.68867109       1.28777385      -0.06190765        8 
O       0.67768841       1.54972321       1.12641869        8 
O       2.30741540       1.94987985      -0.37355583        8 
C       1.12796911       2.67411837       1.89838909        6 
C      -1.64116075       3.54709777      -0.99164931        6 
C      -0.97413885      -1.31250091       0.11754806        6 
C      -0.68216690      -2.53200037      -0.78968588        6 
C       0.85357915      -2.40629864      -0.98315905        6 
C       1.18909496      -1.21429278      -0.04849938        6 
O       0.18479235      -1.30861787       0.97110455        8 
H      -1.08553062      -0.28390648      -1.79008611        1 
H       1.20911490       0.16655128      -1.77692546        1 
H       1.04578085       3.59252195       1.31380723        1 
H      -1.82453691       3.82716009       0.04706571        1 
H      -0.94258163      -3.44691528      -0.25466512        1 
H      -1.25442773      -2.51176926      -1.71650074        1 
H       1.37835054      -3.30125676      -0.64569059        1 
H       1.15625794      -2.21554292      -2.01289058        1 
H       0.47398117       2.71060986       2.76678446        1 
H       2.16646970       2.53964918       2.20509957        1 
H      -2.59377486       3.48153956      -1.51941384        1 
H      -0.98330330       4.26745996      -1.47278435        1 
C      -2.22798177      -1.42944362       0.95711412        6 
C       2.56888738      -1.25895972       0.57396527        6 
O       3.50768666      -1.26331293      -0.48385078        8 
H       2.65755765      -2.16868744       1.18572896        1 
H       2.72731847      -0.39574728       1.23384685        1 
C       4.83956059      -1.06283173      -0.04869246        6 
H       5.47237749      -1.08799973      -0.93574153        1 
H       5.15963339      -1.85440585       0.64376597        1 
H       4.95096882      -0.08828091       0.44449210        1 
O      -3.30882042      -1.66894429       0.07252082        8 
H      -2.38977267      -0.51770483       1.53905560        1 
H      -2.10272043      -2.27183921       1.65297670        1 
C      -4.57185418      -1.40937244       0.65649747        6 
H      -5.32504627      -1.63246957      -0.09989750        1 
H      -4.65432372      -0.35654967       0.95114991        1 
H      -4.74867264      -2.04876298       1.53355175        1 
