43
Lattice="0.0 0.0 0.0 0.0 0.0 0.0 0.0 0.0 0.0" Properties=species:S:1:pos:R:3:Z:I:1 pbc="F F F"
C      -0.82663685      -0.03038894      -0.75725982        6 
C       0.74627949       0.03579388      -0.81840858        6 
C      -1.52393585       1.24928572      -0.31827399        6 
C       1.37809977       1.29762229      -0.26149030        6 
O      -0.99287849       2.29833536      -0.98483959        8 
O      -2.48154917       1.35396394       0.40539074        8 
O       1.00159945       1.52898162       1.01652704        8 
O       2.12458159       2.01929095      -0.87326079        8 
C       1.50686436       2.73335381       1.61440325        6 
C      -1.57443834       3.58637853      -0.72224222        6 
C      -1.05045860      -1.33247900       0.07978776        6 
C      -0.73905390      -2.53065582      -0.85597330        6 
C       0.80952041      -2.47443519      -0.93488415        6 
C       1.11655480      -1.26243318      -0.02123436        6 
O       0.08099044      -1.33777810       0.96737799        8 
H      -1.20684281      -0.18616194      -1.77020929        1 
H       1.10407053      -0.02975014      -1.84256399        1 
H       1.22353117       3.60200481       1.01759804        1 
H      -1.49676991       3.82851420       0.33904200        1 
H      -1.08157077      -3.45413341      -0.38655026        1 
H      -1.23737651      -2.44417471      -1.82118082        1 
H       1.26636623      -3.37407729      -0.51862510        1 
H       1.19832919      -2.33792617      -1.94380226        1 
H       1.05360679       2.77901647       2.60225555        1 
H       2.59495196       2.69676052       1.69261305        1 
H      -2.62507414       3.59806379      -1.01643340        1 
H      -0.99845522       4.28895030      -1.32020455        1 
C      -2.32847653      -1.48631088       0.87725497        6 
C       2.47545457      -1.29009725       0.64673161        6 
O       3.44820347      -1.24003543      -0.38092529        8 
H       2.56854528      -2.21499060       1.23445864        1 
H       2.58422988      -0.44192425       1.33413582        1 
C       4.76879319      -1.10031975       0.10646392        6 
H       5.42765530      -1.06041469      -0.76080050        1 
H       5.05618326      -1.95212326       0.73884446        1 
H       4.88232574      -0.17362264       0.68546138        1 
O      -3.39569659      -1.54929393      -0.05527815        8 
H      -2.45760938      -0.64793339       1.56457220        1 
H      -2.26643474      -2.41836016       1.45843678        1 
C      -4.66460099      -1.37343054       0.54690132        6 
H      -5.40926823      -1.45116098      -0.24598098        1 
H      -4.73890543      -0.38656510       1.01994193        1 
H      -4.86287183      -2.15032535       1.29915742        1 
