43
Lattice="0.0 0.0 0.0 0.0 0.0 0.0 0.0 0.0 0.0" Properties=species:S:1:pos:R:3:Z:I:1 pbc="F F F"
C      -0.90537765       0.11669275      -0.65603534        6 
C       0.66278326      -0.03478965      -0.70641075        6 
C      -1.40551560       1.39155658       0.01039302        6 
C       1.44029706       1.06267003      -0.01017123        6 
O      -0.77279078       2.45463469      -0.53809907        8 
O      -2.29661262       1.50556945       0.81162323        8 
O       2.26327505       1.69154009      -0.87059219        8 
O       1.37037202       1.33565686       1.16513347        8 
C       3.07611137       2.73389900      -0.30838657        6 
C      -1.10677965       3.74259151       0.00786330        6 
C      -1.32554485      -1.24816895      -0.03628673        6 
C      -1.07367967      -2.34297839      -1.11149444        6 
C       0.46853281      -2.51097436      -1.04393569        6 
C       0.83690602      -1.43284958      -0.00052773        6 
O      -0.27000403      -1.48635054       0.90870263        8 
H      -1.28563791       0.19333003      -1.67758732        1 
H       1.01228906      -0.08247009      -1.73396906        1 
H       3.70888598       2.33796221       0.48751720        1 
H      -0.82889706       3.78323613       1.06223296        1 
H      -1.58856511      -3.26121690      -0.82585533        1 
H      -1.44307272      -2.04919362      -2.09417241        1 
H       0.74536275      -3.49697158      -0.66576733        1 
H       0.97532554      -2.36011989      -1.99702431        1 
H       3.68293932       3.10534964      -1.13126620        1 
H       2.44944719       3.53037881       0.09689642        1 
H      -2.17481185       3.93853996      -0.09509224        1 
H      -0.52774020       4.46002224      -0.56970996        1 
C      -2.66829315      -1.34980006       0.65739406        6 
C       2.11917256      -1.65798330       0.77340242        6 
O       3.20154070      -1.43026590      -0.11509104        8 
H       2.13563061      -2.68892591       1.15444699        1 
H       2.15952870      -0.97125937       1.62584356        1 
C       4.46376026      -1.51480179       0.51823277        6 
H       5.21822844      -1.30693808      -0.24083402        1 
H       4.63847194      -2.51720060       0.93331796        1 
H       4.55227701      -0.77799759       1.32837362        1 
O      -3.66379621      -1.05402962      -0.30967425        8 
H      -2.71524209      -0.65007815       1.49363356        1 
H      -2.79244159      -2.37384255       1.03949123        1 
C      -4.93212283      -0.80656193       0.26904824        6 
H      -5.62220986      -0.59384030      -0.54812766        1 
H      -4.89129219       0.05643820       0.94525317        1 
H      -5.29734772      -1.68202366       0.82480925        1 
