43
Lattice="0.0 0.0 0.0 0.0 0.0 0.0 0.0 0.0 0.0" Properties=species:S:1:pos:R:3:Z:I:1 pbc="F F F"
C      -0.64731610       0.01777973       0.80487762        6 
C       0.88727068      -0.28424786       0.75610971        6 
C      -1.65412143      -1.09203695       0.56141285        6 
C       1.42362270      -1.47066392      -0.02986901        6 
O      -2.48915157      -1.17100367       1.62676483        8 
O      -1.74205705      -1.83100464      -0.38682816        8 
O       0.85057576      -1.62611931      -1.22515027        8 
O       2.37220251      -2.12280405       0.34862953        8 
C       1.32840643      -2.71204027      -2.03422901        6 
C      -3.55385299      -2.12847131       1.51752026        6 
C      -0.75992637       1.25616828      -0.18185634        6 
C      -0.46983578       2.49652916       0.68460058        6 
C       1.02859660       2.24644201       1.02526145        6 
C       1.37616830       1.05072516       0.08699968        6 
O       0.43090857       1.18803944      -0.97772446        8 
H      -0.87011012       0.37483449       1.80753558        1 
H       1.29797879      -0.39030784       1.75809018        1 
H       1.16853510      -3.66353562      -1.52471254        1 
H      -3.15562041      -3.13667800       1.39152822        1 
H      -0.59623340       3.39948173       0.08337443        1 
H      -1.11920490       2.56652724       1.55682865        1 
H       1.65172050       3.10788646       0.78364360        1 
H       1.19989686       2.00106405       2.07366826        1 
H       0.74144617      -2.66746239      -2.94857609        1 
H       2.39197757      -2.59369475      -2.24979505        1 
H      -4.19371438      -1.88727312       0.66652649        1 
H      -4.11202999      -2.05008164       2.44799575        1 
C      -1.95258737       1.29492792      -1.11100732        6 
C       2.78860922       1.05901311      -0.45917004        6 
O       3.66739866       1.00858139       0.64767778        8 
H       2.94194476       1.97718702      -1.04541365        1 
H       2.95134038       0.20407809      -1.12777707        1 
C       5.00638172       0.72491597       0.28530902        6 
H       5.58905996       0.70703848       1.20625059        1 
H       5.41423826       1.49692238      -0.38262877        1 
H       5.08162488      -0.25326199      -0.20692156        1 
O      -3.12675767       1.30818793      -0.31736323        8 
H      -1.93022633       0.41136662      -1.76064451        1 
H      -1.89307830       2.19416930      -1.74041191        1 
C      -4.31093251       1.17873925      -1.08181308        6 
H      -5.14750215       1.19493517      -0.38280777        1 
H      -4.32061777       0.23229369      -1.63918582        1 
H      -4.42209797       2.00917381      -1.79271175        1 
