43
Lattice="0.0 0.0 0.0 0.0 0.0 0.0 0.0 0.0 0.0" Properties=species:S:1:pos:R:3:Z:I:1 pbc="F F F"
C      -0.70127274       0.05248552       0.79641750        6 
C       0.82862236      -0.20279537       0.73906017        6 
C      -1.65925771      -1.12503881       0.76091117        6 
C       1.31932554      -1.33639993      -0.14546617        6 
O      -1.02590529      -2.30543958       0.92381862        8 
O      -2.86180696      -1.02305946       0.80471139        8 
O       0.50855712      -1.58069736      -1.19088290        8 
O       2.39651776      -1.86860701      -0.00805590        8 
C       0.94915885      -2.58771975      -2.11422310        6 
C      -1.86507674      -3.46316735       1.08173605        6 
C      -0.89374966       1.28760953      -0.16584396        6 
C      -0.61590510       2.53816649       0.69349460        6 
C       0.89163758       2.33210813       1.01119196        6 
C       1.26214436       1.15300973       0.06392789        6 
O       0.28946691       1.25635339      -0.98608256        8 
H      -0.91227512       0.42339592       1.80581425        1 
H       1.28546023      -0.33405215       1.71688750        1 
H       1.04404408      -3.55133859      -1.61013849        1 
H      -2.48461272      -3.60771673       0.19523899        1 
H      -0.77935113       3.43374889       0.09164784        1 
H      -1.25692362       2.59555734       1.57212699        1 
H       1.48646418       3.21270907       0.76749043        1 
H       1.08520843       2.08530040       2.05571089        1 
H       0.18139682      -2.63214956      -2.88382859        1 
H       1.91195471      -2.31613157      -2.54976373        1 
H      -2.50963700      -3.35226173       1.95499566        1 
H      -1.18085077      -4.29878549       1.21174350        1 
C      -2.12770978       1.34089847      -1.04221181        6 
C       2.66192195       1.21972060      -0.50926029        6 
O       3.56207514       1.17616001       0.58140015        8 
H       2.77243868       2.15635916      -1.07540117        1 
H       2.84350639       0.38612868      -1.19777321        1 
C       4.89616638       0.90166139       0.19373853        6 
H       5.49664578       0.89147704       1.10346010        1 
H       5.28558264       1.67527079      -0.48336783        1 
H       4.96751941      -0.07737325      -0.29654504        1 
O      -3.19870658       1.83362655      -0.25891572        8 
H      -2.35682151       0.34721504      -1.44424233        1 
H      -1.92339185       2.01239941      -1.88874403        1 
C      -4.47376977       1.48348716      -0.76362543        6 
H      -5.21234881       1.92246280      -0.09237275        1 
H      -4.60107325       0.39457429      -0.77509166        1 
H      -4.63014591       1.88262643      -1.77613789        1 
