43
Lattice="0.0 0.0 0.0 0.0 0.0 0.0 0.0 0.0 0.0" Properties=species:S:1:pos:R:3:Z:I:1 pbc="F F F"
C      -0.66473226       0.09110284      -0.68064839        6 
C       0.89927653       0.10396416      -0.71632129        6 
C      -1.26782650       1.15880649       0.21006225        6 
C       1.53484358       1.41712783      -0.28501852        6 
O      -2.44945278       1.57951930      -0.28834020        8 
O      -0.80669775       1.55937547       1.25111409        8 
O       0.89175217       2.43887210      -0.90125546        8 
O       2.52776253       1.57323101       0.37681532        8 
C       1.33564728       3.76285998      -0.55948417        6 
C      -3.16316727       2.54115704       0.50725779        6 
C      -0.91312175      -1.32559365      -0.04876706        6 
C      -0.50610860      -2.39972343      -1.08997720        6 
C       1.04111857      -2.37628640      -0.96866166        6 
C       1.25466636      -1.21990607       0.03847037        6 
O       0.13409205      -1.39833624       0.92616706        8 
H      -1.11116818       0.16954731      -1.66873327        1 
H       1.21847127       0.00842893      -1.75778798        1 
H       2.39832503       3.88104481      -0.77399556        1 
H      -2.57005622       3.44786535       0.63586279        1 
H      -0.92040330      -3.36842225      -0.80616091        1 
H      -0.87658194      -2.16221524      -2.08726537        1 
H       1.42033450      -3.30314634      -0.53494087        1 
H       1.56066361      -2.21062982      -1.91221590        1 
H       0.74197255       4.43565812      -1.17490373        1 
H       1.15359785       3.95095160       0.50002522        1 
H      -3.39828831       2.12785397       1.48976853        1 
H      -4.07517953       2.75498570      -0.04588295        1 
C      -2.24930220      -1.56317154       0.62458399        6 
C       2.54575200      -1.29131819       0.82355766        6 
O       3.60817718      -1.22435303      -0.11400625        8 
H       2.57197142      -2.24483916       1.37133426        1 
H       2.60044733      -0.46996696       1.54174444        1 
C       4.85017322      -0.89549963       0.48154915        6 
H       5.59247109      -0.87555104      -0.31724246        1 
H       5.14944770      -1.64642667       1.22691348        1 
H       4.80321843       0.09024957       0.95902838        1 
O      -3.24022395      -1.61527124      -0.38468152        8 
H      -2.46762224      -0.76756962       1.34952960        1 
H      -2.19956518      -2.51304433       1.17644411        1 
C      -4.55252833      -1.70471682       0.13378887        6 
H      -5.23230293      -1.74771173      -0.71730434        1 
H      -4.79919052      -0.82659294       0.74699452        1 
H      -4.68317540      -2.60924780       0.74447219        1 
