43
Lattice="0.0 0.0 0.0 0.0 0.0 0.0 0.0 0.0 0.0" Properties=species:S:1:pos:R:3:Z:I:1 pbc="F F F"
C      -0.92875914      -0.01991396      -0.68243108        6 
C       0.64543531      -0.06721828      -0.84610488        6 
C      -1.49509397       1.18834276       0.06566750        6 
C       1.38029271       1.25446605      -0.71778330        6 
O      -1.07613185       2.32783725      -0.51515503        8 
O      -2.28461105       1.17838952       0.97724132        8 
O       1.75214704       1.53522256       0.55056965        8 
O       1.51403003       2.03060847      -1.62932291        8 
C       2.35895435       2.82211484       0.75235996        6 
C      -1.57416509       3.55551325       0.04140437        6 
C      -1.15404044      -1.39419333       0.01537843        6 
C      -0.74875810      -2.51649959      -0.98986558        6 
C       0.79330964      -2.54658809      -0.83788197        6 
C       1.01591761      -1.30396211       0.05053481        6 
O      -0.08075705      -1.40459016       0.97368883        8 
H      -1.39831840       0.01163882      -1.66670720        1 
H       0.84303696      -0.33409169      -1.88378548        1 
H       1.67585917       3.61529100       0.44451706        1 
H      -1.31185833       3.63001963       1.09796017        1 
H      -1.20367836      -3.46256631      -0.69446323        1 
H      -1.08469619      -2.29515759      -2.00357913        1 
H       1.12267944      -3.43689268      -0.29828517        1 
H       1.34071596      -2.49477177      -1.77902070        1 
H       2.56392473       2.88372081       1.81926192        1 
H       3.28286257       2.90383310       0.17731198        1 
H      -2.65917241       3.60846472      -0.06254262        1 
H      -1.09485136       4.34469234      -0.53365334        1 
C      -2.47629218      -1.65561429       0.71045799        6 
C       2.32344964      -1.27213516       0.81195993        6 
O       3.35443175      -1.01446604      -0.12879261        8 
H       2.48096595      -2.24271845       1.30368583        1 
H       2.29123366      -0.49165215       1.57704144        1 
C       4.60330301      -0.75371542       0.48130551        6 
H       5.32111846      -0.57077337      -0.31857680        1 
H       4.94507270      -1.60856483       1.08127997        1 
H       4.54868783       0.13235983       1.12886061        1 
O      -3.49475450      -1.50044476      -0.26627430        8 
H      -2.61838763      -0.96060184       1.53884810        1 
H      -2.47010090      -2.68408326       1.10111433        1 
C      -4.79623589      -1.54295017       0.28738531        6 
H      -5.50034261      -1.41493821      -0.53537635        1 
H      -4.94064653      -0.73594896       1.01712395        1 
H      -4.99224338      -2.50704900       0.77816413        1 
