43
Lattice="0.0 0.0 0.0 0.0 0.0 0.0 0.0 0.0 0.0" Properties=species:S:1:pos:R:3:Z:I:1 pbc="F F F"
C      -0.87456481       0.21417454      -0.65367089        6 
C       0.68201754       0.14708190      -0.73254799        6 
C      -1.45277839       1.27885329       0.27258091        6 
C       1.44000673       1.42056016      -0.40033370        6 
O      -2.23491802       2.12540042      -0.43515032        8 
O      -1.27380093       1.37461916       1.45847528        8 
O       2.73257195       1.29268189      -0.77358856        8 
O       0.99793664       2.42817173       0.09079451        8 
C       3.57874152       2.42610978      -0.51618786        6 
C      -2.80869706       3.21056731       0.31324747        6 
C      -1.15556516      -1.21003208      -0.06445748        6 
C      -0.72791122      -2.28022751      -1.10994252        6 
C       0.80959374      -2.34562704      -0.89117506        6 
C       1.00729985      -1.16744989       0.08634429        6 
O      -0.13501282      -1.30991808       0.93878318        8 
H      -1.32160559       0.33995441      -1.63667720        1 
H       0.96012089      -0.04681033      -1.77052409        1 
H       3.62034073       2.63687675       0.55401896        1 
H      -2.02062350       3.80323129       0.77971596        1 
H      -1.20911043      -3.23417699      -0.88991951        1 
H      -1.01089752      -1.99378238      -2.12343914        1 
H       1.10332076      -3.27435000      -0.39894916        1 
H       1.39798245      -2.24426989      -1.80257509        1 
H       4.56055534       2.14332601      -0.88969448        1 
H       3.20774613       3.30905704      -1.03899853        1 
H      -3.47897293       2.83122117       1.08693301        1 
H      -3.36148839       3.80376448      -0.41232235        1 
C      -2.51278748      -1.44087664       0.56767062        6 
C       2.26188087      -1.20722212       0.93465539        6 
O       3.36509774      -1.48763479       0.09392555        8 
H       2.14004940      -1.99473152       1.69170410        1 
H       2.39998531      -0.25451398       1.46361885        1 
C       4.60938357      -1.27817494       0.72782439        6 
H       5.38536087      -1.52687913       0.00338008        1 
H       4.72752656      -1.91947040       1.61306164        1 
H       4.72700723      -0.22951447       1.03526544        1 
O      -3.48833487      -1.26045390      -0.44547968        8 
H      -2.67042360      -0.74325212       1.39827556        1 
H      -2.54967094      -2.46418948       0.96888096        1 
C      -4.81190849      -1.40506166       0.03225486        6 
H      -5.47923330      -1.23949738      -0.81369185        1 
H      -5.03546983      -0.66979542       0.81749824        1 
H      -4.98503083      -2.41310095       0.43483175        1 
