43
Lattice="0.0 0.0 0.0 0.0 0.0 0.0 0.0 0.0 0.0" Properties=species:S:1:pos:R:3:Z:I:1 pbc="F F F"
C      -0.65671060       0.04552916       0.76786673        6 
C       0.84957955      -0.31138537       0.67600304        6 
C      -1.67370249      -1.07825623       0.78246595        6 
C       1.22144500      -1.37545447      -0.35317361        6 
O      -1.11257720      -2.23191711       1.21010766        8 
O      -2.86824408      -0.93696007       0.68266142        8 
O       0.18074838      -1.77817466      -1.10711028        8 
O       2.35954281      -1.70743481      -0.59125147        8 
C       0.48740746      -2.66197225      -2.19769259        6 
C      -2.01318516      -3.33043355       1.42928678        6 
C      -0.79205094       1.29186527      -0.18353738        6 
C      -0.48790793       2.51466506       0.70318883        6 
C       0.98846883       2.21642288       1.08093036        6 
C       1.35543511       1.06721645       0.09196618        6 
O       0.41027638       1.23488216      -0.98065124        8 
H      -0.81575657       0.42432239       1.78525845        1 
H       1.31492394      -0.55840181       1.62734668        1 
H       0.97103000      -3.56830723      -1.83055792        1 
H      -2.53056961      -3.58962430       0.50401448        1 
H      -0.57190686       3.42507866       0.10731885        1 
H      -1.16484821       2.59515753       1.55277397        1 
H       1.63699367       3.07650021       0.91513407        1 
H       1.11887380       1.90889586       2.11935699        1 
H      -0.47012066      -2.89683581      -2.65783319        1 
H       1.14543136      -2.16755449      -2.91404616        1 
H      -2.75083926      -3.07665557       2.19231833        1 
H      -1.38686620      -4.15619230       1.76010134        1 
C      -2.00258949       1.40090053      -1.08702821        6 
C       2.77075768       1.16189356      -0.43851123        6 
O       3.64261996       1.01418950       0.66815028        8 
H       2.89805864       2.14987532      -0.90627899        1 
H       2.96582142       0.39587608      -1.19302788        1 
C       4.99004157       0.81109072       0.28418534        6 
H       5.57319824       0.71424208       1.20029707        1 
H       5.37495113       1.66201235      -0.29602601        1 
H       5.09419400      -0.10518526      -0.31054931        1 
O      -3.07147332       1.92792137      -0.32255912        8 
H      -2.26108215       0.42139931      -1.50423879        1 
H      -1.75130911       2.07470573      -1.91883263        1 
C      -4.34713525       1.62934226      -0.85788266        6 
H      -5.08376088       2.08628977      -0.19641922        1 
H      -4.51186139       0.54592966      -0.88611492        1 
H      -4.46829582       2.04639891      -1.86812835        1 
