43
Lattice="0.0 0.0 0.0 0.0 0.0 0.0 0.0 0.0 0.0" Properties=species:S:1:pos:R:3:Z:I:1 pbc="F F F"
C      -0.78806423       0.12592899       0.90945627        6 
C       0.78996818       0.12487886       0.93194732        6 
C      -1.42285568      -1.21747718       0.58241470        6 
C       1.51962700      -1.18777013       0.72773042        6 
O      -1.68218628      -1.41139828      -0.72028018        8 
O      -1.70203214      -2.02305513       1.43943659        8 
O       1.07142855      -1.88352055      -0.33716594        8 
O       2.44388904      -1.55312034       1.41174814        8 
C       1.72336310      -3.13953509      -0.59364112        6 
C      -2.23845079      -2.68905349      -1.06472028        6 
C      -1.05276184       1.31230796      -0.06945072        6 
C      -0.63739724       2.62034956       0.66254965        6 
C       0.90775744       2.59269786       0.52157721        6 
C       1.11104916       1.22118541      -0.15820106        6 
O      -0.00979959       1.14821872      -1.04592608        8 
H      -1.16053874       0.35542185       1.90549867        1 
H       1.14276007       0.47005608       1.90101888        1 
H       1.59295021      -3.81401989       0.25377871        1 
H      -3.20178748      -2.83588837      -0.57356964        1 
H      -1.07072576       3.48301343       0.15429836        1 
H      -0.98034381       2.63811739       1.69746173        1 
H       1.26296972       3.38433233      -0.14099926        1 
H       1.44616288       2.67526531       1.46498168        1 
H       1.23988774      -3.53991567      -1.48236242        1 
H       2.78926153      -2.98860979      -0.77183517        1 
H      -1.56003822      -3.48986884      -0.76567761        1 
H      -2.35621824      -2.67141169      -2.14637539        1 
C      -2.40287986       1.37348534      -0.75967287        6 
C       2.39705138       1.06047679      -0.94027951        6 
O       3.46829474       1.26225301      -0.03853870        8 
H       2.41735630       1.80126207      -1.75291022        1 
H       2.44482397       0.06233968      -1.39446695        1 
C       4.72301040       0.87039857      -0.56108036        6 
H       5.46584018       1.06329988       0.21257156        1 
H       4.98175838       1.44553168      -1.46132922        1 
H       4.73160926      -0.20033209      -0.80570278        1 
O      -3.39419712       1.19295555       0.23871860        8 
H      -2.46741808       0.59234365      -1.52164451        1 
H      -2.51925203       2.35128519      -1.24878925        1 
C      -4.70760554       1.15844581      -0.28515268        6 
H      -5.38557176       1.00668884       0.55478269        1 
H      -4.82823417       0.33288183      -1.00014173        1 
H      -4.96394923       2.10111983      -0.78849250        1 
