43
Lattice="0.0 0.0 0.0 0.0 0.0 0.0 0.0 0.0 0.0" Properties=species:S:1:pos:R:3:Z:I:1 pbc="F F F"
C      -0.83883058       0.28079946      -0.68242323        6 
C       0.67801006      -0.03678953      -0.76600265        6 
C      -1.23844852       1.37410570       0.30016005        6 
C       1.65123087       1.12556936      -0.72613580        6 
O      -0.24841521       1.72102706       1.14425504        8 
O      -2.36725772       1.79314504       0.40865294        8 
O       1.06292409       2.25033094      -1.19516612        8 
O       2.84037010       1.04288114      -0.54090181        8 
C       1.92341903       3.38694564      -1.37743184        6 
C      -0.58985613       2.66412888       2.17290146        6 
C      -1.32235699      -1.09243911      -0.07883935        6 
C      -0.96063663      -2.24225395      -1.06701168        6 
C       0.52839646      -2.51231520      -0.71959709        6 
C       0.82928236      -1.29177000       0.17276287        6 
O      -0.36522310      -1.25138848       0.98212047        8 
H      -1.30582479       0.49568856      -1.64060532        1 
H       0.86456712      -0.39339392      -1.78632871        1 
H       2.71388935       3.15787047      -2.09392654        1 
H      -1.35350469       2.24886543       2.83235417        1 
H      -1.59122075      -3.11151653      -0.88037779        1 
H      -1.11833030      -1.94423305      -2.10425106        1 
H       0.64241842      -3.42553295      -0.13293970        1 
H       1.18902894      -2.57465102      -1.58342275        1 
H       1.28019152       4.17859394      -1.75570411        1 
H       2.37468370       3.68018763      -0.42818556        1 
H      -0.96053115       3.59101012       1.73256299        1 
H       0.33294699       2.84074719       2.72132098        1 
C      -2.73229856      -1.18070256       0.46632063        6 
C       2.04751317      -1.40429801       1.06412508        6 
O       3.12232945      -1.87511806       0.27174288        8 
H       1.81898307      -2.11608903       1.87067180        1 
H       2.28445508      -0.43545045       1.51625467        1 
C       4.39346910      -1.58840000       0.82431155        6 
H       5.13708245      -2.00352295       0.14332971        1 
H       4.51708787      -2.05320714       1.81318056        1 
H       4.54496876      -0.50581186       0.90731538        1 
O      -3.61352400      -1.09922885      -0.63933336        8 
H      -2.93447383      -0.37903025       1.18295406        1 
H      -2.84442656      -2.14433191       0.98571982        1 
C      -4.96447059      -0.91976152      -0.25613108        6 
H      -5.55344950      -0.87384067      -1.17240663        1 
H      -5.09308145       0.01515076       0.30407218        1 
H      -5.32253448      -1.75896694       0.35737918        1 
