43
Lattice="0.0 0.0 0.0 0.0 0.0 0.0 0.0 0.0 0.0" Properties=species:S:1:pos:R:3:Z:I:1 pbc="F F F"
C      -0.75004820      -0.11140435       0.76135412        6 
C       0.82282503       0.01797185       0.73774293        6 
C      -1.22427808      -1.48819603       0.30867205        6 
C       1.54334163      -1.14993153       0.09363574        6 
O      -2.27346225      -1.48496472      -0.52448059        8 
O      -0.70170664      -2.50497348       0.70141126        8 
O       2.30610154      -1.80055497       0.98822402        8 
O       1.47353800      -1.45192382      -1.07482785        8 
C       2.97750255      -2.97278392       0.49751926        6 
C      -2.73991002      -2.77879351      -0.95620236        6 
C      -1.17139219       1.20707842       0.03741205        6 
C      -0.87137670       2.37745973       1.02066902        6 
C       0.66940492       2.51068507       0.89785320        6 
C       0.99137348       1.35252866      -0.07265532        6 
O      -0.14319136       1.35600291      -0.95170243        8 
H      -1.08501572      -0.07135883       1.80095006        1 
H       1.21588426       0.13116665       1.74426315        1 
H       3.65449658      -2.71437445      -0.31869307        1 
H      -3.09428827      -3.35918664      -0.10335737        1 
H      -1.37692074       3.28135844       0.67754211        1 
H      -1.22010450       2.16722174       2.03180559        1 
H       0.94983693       3.46112667       0.43955669        1 
H       1.20380852       2.42099464       1.84352369        1 
H       3.53334734      -3.36551938       1.34620736        1 
H       2.24606749      -3.70210566       0.14596408        1 
H      -1.93728528      -3.32069840      -1.45705150        1 
H      -3.55572422      -2.57337642      -1.64604018        1 
C      -2.52906699       1.30980676      -0.62729494        6 
C       2.25591859       1.49966710      -0.89317810        6 
O       3.35474513       1.29216060      -0.01984930        8 
H       2.29031665       2.50670071      -1.33280670        1 
H       2.25551325       0.76351199      -1.70379829        1 
C       4.59987378       1.27995063      -0.69138404        6 
H       5.36715155       1.08682701       0.05871806        1 
H       4.80505964       2.24559664      -1.17448170        1 
H       4.63224224       0.49012603      -1.45427153        1 
O      -3.51120577       1.13113478       0.38004285        8 
H      -2.63073777       0.56040374      -1.41478788        1 
H      -2.61771161       2.30836158      -1.08004828        1 
C      -4.82211376       1.04551097      -0.14019167        6 
H      -5.49798725       0.91382544       0.70528168        1 
H      -4.92362967       0.18832568      -0.81974737        1 
H      -5.10142202       1.96047818      -0.68189874        1 
