43
Lattice="0.0 0.0 0.0 0.0 0.0 0.0 0.0 0.0 0.0" Properties=species:S:1:pos:R:3:Z:I:1 pbc="F F F"
C      -0.50262844      -0.00675449       0.78774995        6 
C       0.99339741      -0.42045551       0.62946125        6 
C      -1.51860374      -1.10472265       1.04529867        6 
C       1.27958617      -1.52564562      -0.40580825        6 
O      -2.75397073      -0.78154085       0.61443993        8 
O      -1.26813820      -2.13001845       1.62674420        8 
O       0.25350030      -2.37700396      -0.56121970        8 
O       2.27174573      -1.59486869      -1.09092951        8 
C       0.42016143      -3.40651445      -1.55084750        6 
C      -3.79630562      -1.72247794       0.92806506        6 
C      -0.64217478       1.20576324      -0.21733834        6 
C      -0.31114926       2.45073782       0.62757084        6 
C       1.15327768       2.11656025       1.02296607        6 
C       1.50838326       0.94613810       0.04793837        6 
O       0.55221889       1.10637536      -1.02188794        8 
H      -0.54053710       0.45500956       1.78329872        1 
H       1.45774583      -0.69350498       1.57659374        1 
H       1.29406410      -4.01852330      -1.32363237        1 
H      -3.89503633      -1.83834069       2.00844408        1 
H      -0.36322683       3.34240360       0.00034525        1 
H      -0.98840596       2.58217598       1.47140986        1 
H       1.82349079       2.95947169       0.85704147        1 
H       1.26421636       1.81879239       2.06707455        1 
H      -0.48814940      -4.00285282      -1.49741084        1 
H       0.53777197      -2.96603983      -2.54238957        1 
H      -3.58166883      -2.69491142       0.48234807        1 
H      -4.70435200      -1.29712805       0.50589167        1 
C      -1.83262098       1.32259273      -1.14739810        6 
C       2.92353263       1.05480318      -0.48904265        6 
O       3.79721087       0.75217855       0.58712713        8 
H       3.08154476       2.08746519      -0.83511258        1 
H       3.08037341       0.37383248      -1.32446057        1 
C       5.14717184       0.63261363       0.17986235        6 
H       5.73201937       0.39703702       1.06959778        1 
H       5.52045639       1.57117513      -0.25462835        1 
H       5.26750798      -0.17274994      -0.55601946        1 
O      -2.90522551       1.92164329      -0.44287754        8 
H      -2.12102028       0.33959116      -1.53658261        1 
H      -1.53035628       1.95536530      -1.99403903        1 
C      -4.12708834       1.85519551      -1.14608248        6 
H      -4.88258206       2.33954915      -0.52654670        1 
H      -4.42443047       0.81297534      -1.32861485        1 
H      -4.06834639       2.37815751      -2.11167445        1 
