43
Lattice="0.0 0.0 0.0 0.0 0.0 0.0 0.0 0.0 0.0" Properties=species:S:1:pos:R:3:Z:I:1 pbc="F F F"
C      -0.65138736      -0.00115959      -0.71398266        6 
C       0.87754238       0.31159092      -0.63006464        6 
C      -1.64235814       1.14570734      -0.69983320        6 
C       1.26940297       1.33357676       0.45371534        6 
O      -1.19632418       2.12914090      -1.51610417        8 
O      -2.76890759       1.11819890      -0.26962513        8 
O       0.29061543       2.22351542       0.71175710        8 
O       2.29257375       1.31818973       1.09274188        8 
C       0.53859489       3.14859346       1.78535576        6 
C      -2.08767138       3.23668174      -1.71303076        6 
C      -0.79891787      -1.27977710       0.18828654        6 
C      -0.57723152      -2.46940929      -0.76374809        6 
C       0.88274766      -2.18625096      -1.20611125        6 
C       1.34570854      -1.11460756      -0.16771015        6 
O       0.43560654      -1.30318593       0.93765563        8 
H      -0.81342630      -0.34090546      -1.74391319        1 
H       1.30142213       0.62227767      -1.58449537        1 
H       1.41419077       3.76157258       1.56700265        1 
H      -2.30234967       3.72731968      -0.76168763        1 
H      -0.65152695      -3.40191420      -0.20124300        1 
H      -1.29906086      -2.50070107      -1.57950883        1 
H       1.51337258      -3.07221154      -1.13640038        1 
H       0.96112250      -1.81469025      -2.22922595        1 
H      -0.35624416       3.76432972       1.84700855        1 
H       0.70018312       2.60992825       2.72008279        1 
H      -3.02484188       2.90351148      -2.16219588        1 
H      -1.56326707       3.91680375      -2.38096850        1 
C      -1.97374666      -1.39195361       1.13683084        6 
C       2.77637470      -1.33642079       0.28461915        6 
O       3.61316298      -1.03623217      -0.82191264        8 
H       2.88401995      -2.39361483       0.57113098        1 
H       3.02516320      -0.71209266       1.14209400        1 
C       4.98867838      -1.08765893      -0.49436907        6 
H       5.54471242      -0.83911239      -1.39882173        1 
H       5.28309298      -2.09225865      -0.15816636        1 
H       5.23516228      -0.36366457       0.29324560        1 
O      -3.10165987      -1.79671667       0.38265903        8 
H      -2.15829149      -0.43498914       1.63592391        1 
H      -1.72768444      -2.14404794       1.90047203        1 
C      -4.33181620      -1.52979357       1.02959867        6 
H      -5.12220522      -1.89273231       0.37179703        1 
H      -4.46073235      -0.45286307       1.19000237        1 
H      -4.40210928      -2.05402893       1.99367120        1 
