43
Lattice="0.0 0.0 0.0 0.0 0.0 0.0 0.0 0.0 0.0" Properties=species:S:1:pos:R:3:Z:I:1 pbc="F F F"
C      -0.83540085       0.24896622      -0.65019572        6 
C       0.69471875      -0.10029617      -0.72478081        6 
C      -1.26019391       1.41116730       0.24083967        6 
C       1.66389877       1.04767224      -0.49783390        6 
O      -0.23268080       2.02334284       0.84881724        8 
O      -2.41276166       1.71547205       0.43942020        8 
O       1.48218593       1.95786523      -1.48708457        8 
O       2.51815642       1.15769244       0.34302327        8 
C       2.29583779       3.13838738      -1.41149325        6 
C      -0.55429439       3.08014086       1.76906284        6 
C      -1.36046376      -1.10605834      -0.04912066        6 
C      -1.06620509      -2.24553784      -1.06920276        6 
C       0.42109347      -2.56581969      -0.77567811        6 
C       0.78433227      -1.39459205       0.16001010        6 
O      -0.39194429      -1.32178051       0.99161048        8 
H      -1.26850377       0.43307238      -1.63273030        1 
H       0.89764032      -0.38752042      -1.75879843        1 
H       3.35527817       2.87990068      -1.44537716        1 
H      -1.17844278       2.69847018       2.57806000        1 
H      -1.71608348      -3.09937324      -0.87721704        1 
H      -1.24953941      -1.92213730      -2.09427241        1 
H       0.52702537      -3.50648693      -0.23175898        1 
H       1.05508567      -2.60789755      -1.66076650        1 
H       2.02087872       3.73829145      -2.27656448        1 
H       2.08889536       3.68268390      -0.48797475        1 
H      -1.08112945       3.88538758       1.25491600        1 
H       0.40329868       3.42474065       2.15284958        1 
C      -2.76224376      -1.16278507       0.52193337        6 
C       2.00770297      -1.61420575       1.02168904        6 
O       3.10588578      -1.80411967       0.14330157        8 
H       1.84604457      -2.50948645       1.63990917        1 
H       2.17382672      -0.75530342       1.67565978        1 
C       4.35930513      -1.65416386       0.78430191        6 
H       5.12708734      -1.81848340       0.02742003        1 
H       4.48935040      -2.39187552       1.58894966        1 
H       4.46627705      -0.64412421       1.19775676        1 
O      -3.66112764      -1.03156227      -0.56484011        8 
H      -2.92467109      -0.37502985       1.26176105        1 
H      -2.89039617      -2.13643537       1.01857344        1 
C      -4.99019187      -0.76646999      -0.15584228        6 
H      -5.59400108      -0.69039099      -1.06051324        1 
H      -5.04779225       0.17827356       0.39873649        1 
H      -5.38737230      -1.57789707       0.47089522        1 
