43
Lattice="0.0 0.0 0.0 0.0 0.0 0.0 0.0 0.0 0.0" Properties=species:S:1:pos:R:3:Z:I:1 pbc="F F F"
C      -0.56385375      -0.00463876       0.85147220        6 
C       0.95863792      -0.27823824       0.77515201        6 
C      -1.44433913      -1.23917002       0.91540042        6 
C       1.41230819      -1.44788736      -0.08643689        6 
O      -2.75042418      -0.91301878       0.84714109        8 
O      -1.05437695      -2.36918499       1.07795129        8 
O       0.53821027      -1.76613903      -1.05498506        8 
O       2.51847758      -1.93149444      -0.00954591        8 
C       0.92680260      -2.82815835      -1.93947625        6 
C      -3.68267885      -2.00169425       0.97191685        6 
C      -0.76332194       1.16854827      -0.19396990        6 
C      -0.48744504       2.46713709       0.59066901        6 
C       1.01661601       2.26880112       0.93402813        6 
C       1.39450517       1.04492516       0.04650407        6 
O       0.42171421       1.09435279      -1.00916162        8 
H      -0.75714786       0.43834483       1.83523107        1 
H       1.43409006      -0.38519627       1.74737566        1 
H       1.05160419      -3.75756267      -1.38147571        1 
H      -3.56361139      -2.50041901       1.93496304        1 
H      -0.63738845       3.32612231      -0.06558968        1 
H      -1.13416013       2.58251535       1.45998062        1 
H       1.61819754       3.13531331       0.65878591        1 
H       1.19582439       2.06868072       1.99125463        1 
H       0.11313643      -2.92112991      -2.65575536        1 
H       1.86016119      -2.58265214      -2.44836996        1 
H      -3.53109145      -2.72792224       0.17174496        1 
H      -4.66791544      -1.54654882       0.89635024        1 
C      -1.97594393       1.17495951      -1.10151323        6 
C       2.79509584       1.09093668      -0.52639204        6 
O       3.69343442       1.08069670       0.56743176        8 
H       2.90899348       2.00934763      -1.12101524        1 
H       2.97463656       0.23539411      -1.18632477        1 
C       5.01406317       0.71902414       0.20348571        6 
H       5.61135942       0.73676987       1.11526848        1 
H       5.44186235       1.43020704      -0.51749665        1 
H       5.03741369      -0.29070684      -0.22433001        1 
O      -3.06906407       1.73185420      -0.39594704        8 
H      -2.20558747       0.15856155      -1.44383801        1 
H      -1.73472830       1.78547290      -1.98374801        1 
C      -4.29797816       1.57353369      -1.07210757        6 
H      -5.07037470       2.02028816      -0.44533760        1 
H      -4.53166206       0.51107002      -1.22925883        1 
H      -4.29225065       2.08019804      -2.04808929        1 
