43
Lattice="0.0 0.0 0.0 0.0 0.0 0.0 0.0 0.0 0.0" Properties=species:S:1:pos:R:3:Z:I:1 pbc="F F F"
C      -0.89153021       0.30666389      -0.76169829        6 
C       0.64057455       0.00930479      -0.81075250        6 
C      -1.41322522       1.50100267       0.02601172        6 
C       1.63795773       1.13627138      -0.61178127        6 
O      -0.89335051       1.60945887       1.25127110        8 
O      -2.31005485       2.20414325      -0.38496012        8 
O       2.57747102       1.06567033      -1.58513619        8 
O       1.63561236       2.00238172       0.22704098        8 
C       3.64211530       2.02523856      -1.50370013        6 
C      -1.34217923       2.72374383       2.03801096        6 
C      -1.37366051      -1.02927198      -0.09434245        6 
C      -0.99859614      -2.23083476      -1.01646509        6 
C       0.49548335      -2.46828860      -0.64612416        6 
C       0.76154991      -1.21127779       0.20231616        6 
O      -0.43917062      -1.14733529       0.98298161        8 
H      -1.30337750       0.41654005      -1.76297046        1 
H       0.86125492      -0.37467145      -1.80419735        1 
H       4.21161094       1.88275880      -0.58320568        1 
H      -2.41871461       2.66634539       2.20938246        1 
H      -1.62046303      -3.09456309      -0.78016417        1 
H      -1.15155440      -1.99578964      -2.07017852        1 
H       0.61469820      -3.35918882      -0.02571768        1 
H       1.16090239      -2.55114626      -1.50490909        1 
H       4.27058769       1.83589371      -2.37134227        1 
H       3.24776108       3.04231603      -1.52809765        1 
H      -1.10702892       3.66124999       1.53208644        1 
H      -0.79752728       2.65093668       2.97641435        1 
C      -2.79280448      -1.05668363       0.43315104        6 
C       1.93700577      -1.22179823       1.15365959        6 
O       3.12751784      -1.31311796       0.39219557        8 
H       1.83794326      -2.08004950       1.83355419        1 
H       1.92432474      -0.30301496       1.75457639        1 
C       4.29637233      -1.19201833       1.18024480        6 
H       5.14841585      -1.26657705       0.50416611        1 
H       4.36154159      -1.99398290       1.92876593        1 
H       4.32768464      -0.22358370       1.69820013        1 
O      -3.65857528      -1.05064081      -0.68538350        8 
H      -2.98528556      -0.19259912       1.08225200        1 
H      -2.93249925      -1.96670925       1.03548645        1 
C      -5.01973224      -0.88509556      -0.33398734        6 
H      -5.59287901      -0.89974230      -1.26096576        1 
H      -5.18341670       0.07402757       0.17463629        1 
H      -5.36795947      -1.69990884       0.31667153        1 
