43
Lattice="0.0 0.0 0.0 0.0 0.0 0.0 0.0 0.0 0.0" Properties=species:S:1:pos:R:3:Z:I:1 pbc="F F F"
C      -0.85903079       0.01641915      -0.67157009        6 
C       0.69856791       0.23626261      -0.63813739        6 
C      -1.71783670       1.20951573      -0.27480815        6 
C       1.14283643       1.43159291       0.20259518        6 
O      -1.72114669       2.09564490      -1.29674233        8 
O      -2.38633136       1.34099754       0.71827537        8 
O       2.47163212       1.42568837       0.42449775        8 
O       0.43984718       2.35325830       0.53716761        8 
C       2.99921989       2.57267301       1.11722009        6 
C      -2.40442897       3.33387822      -1.04322392        6 
C      -1.01934010      -1.32843362       0.11915087        6 
C      -0.74497979      -2.45689005      -0.89593489        6 
C       0.76016807      -2.23197815      -1.18014997        6 
C       1.13774863      -1.17175670      -0.10155030        6 
O       0.16702770      -1.38103306       0.93673720        8 
H      -1.13943816      -0.16007109      -1.71062118        1 
H       1.10402957       0.41333696      -1.63585306        1 
H       2.55670399       2.65458949       2.11092159        1 
H      -1.94107278       3.84500753      -0.19804955        1 
H      -0.92059028      -3.42155189      -0.41542730        1 
H      -1.38313962      -2.39382232      -1.77687093        1 
H       1.34632044      -3.14032835      -1.03810719        1 
H       0.96353970      -1.86818530      -2.18810320        1 
H       4.07089438       2.39892452       1.18606995        1 
H       2.79305075       3.48480869       0.55562228        1 
H      -3.45908528       3.15419457      -0.82870529        1 
H      -2.29428936       3.91913519      -1.95401940        1 
C      -2.24772630      -1.52587063       0.98032324        6 
C       2.52719303      -1.38281503       0.46540430        6 
O       3.45261225      -1.22875731      -0.59536563        8 
H       2.57238449      -2.40385399       0.87247598        1 
H       2.73803453      -0.68199701       1.27691436        1 
C       4.79559849      -1.22896337      -0.15690831        6 
H       5.42423817      -1.11603479      -1.04052399        1 
H       5.05473070      -2.17001263       0.34903593        1 
H       4.98692760      -0.39405305       0.53124696        1 
O      -3.36911244      -1.51540598       0.10942570        8 
H      -2.32110427      -0.72868811       1.72258621        1 
H      -2.16683682      -2.49387083       1.49638312        1 
C      -4.59620190      -1.32389093       0.79013330        6 
H      -5.38576566      -1.34479062       0.03810048        1 
H      -4.60930930      -0.35590537       1.30558987        1 
H      -4.77880040      -2.12483864       1.52056194        1 
