43
Lattice="0.0 0.0 0.0 0.0 0.0 0.0 0.0 0.0 0.0" Properties=species:S:1:pos:R:3:Z:I:1 pbc="F F F"
C      -0.66982176      -0.05244836       0.84515710        6 
C       0.89812018      -0.12566010       0.86189857        6 
C      -1.40110423      -1.35302439       0.54589775        6 
C       1.52612950      -1.42142609       0.36537388        6 
O      -2.73619937      -1.15942926       0.56225568        8 
O      -0.90482879      -2.44234790       0.40070143        8 
O       1.36716228      -1.60534322      -0.95964599        8 
O       2.14909920      -2.17067010       1.07587017        8 
C       1.80637917      -2.87408229      -1.46975041        6 
C      -3.54912357      -2.33171397       0.37454966        6 
C      -0.91652472       1.18161005      -0.11228530        6 
C      -0.62967950       2.45748950       0.71510043        6 
C       0.91431274       2.39061475       0.85023912        6 
C       1.25080145       1.13368755       0.00513097        6 
O       0.21679417       1.13041730      -0.99022850        8 
H      -1.03231829       0.21604468       1.84026508        1 
H       1.27225058      -0.01486880       1.87696543        1 
H       1.24487518      -3.67656316      -0.98911076        1 
H      -3.33237339      -3.07468214       1.14323649        1 
H      -0.94357411       3.33442813       0.14685048        1 
H      -1.16349829       2.46870273       1.66459770        1 
H       1.39463300       3.26972497       0.41738370        1 
H       1.26198758       2.29459229       1.87883272        1 
H       1.59727026      -2.84574299      -2.53733846        1 
H       2.87335463      -3.01739235      -1.29036302        1 
H      -3.36824390      -2.77025672      -0.60842733        1 
H      -4.57689675      -1.98434225       0.45535935        1 
C      -2.17526721       1.25022116      -0.95461059        6 
C       2.61292786       1.16435294      -0.65776953        6 
O       3.57859742       1.11677596       0.37862809        8 
H       2.70787547       2.09182754      -1.24147522        1 
H       2.72643548       0.31624671      -1.34064307        1 
C       4.90372913       0.99064975      -0.10012319        6 
H       5.55613305       0.94194500       0.77164774        1 
H       5.19157676       1.85282813      -0.71819999        1 
H       5.02666300       0.07335896      -0.69196158        1 
O      -3.24941165       1.64630123      -0.12386232        8 
H      -2.38295346       0.28653039      -1.43454168        1 
H      -2.00649914       1.99265304      -1.74804736        1 
C      -4.50635929       1.52754204      -0.75638997        6 
H      -5.26002391       1.85768734      -0.04099104        1 
H      -4.71082729       0.48580116      -1.04054918        1 
H      -4.56743616       2.15611459      -1.65646587        1 
