43
Lattice="0.0 0.0 0.0 0.0 0.0 0.0 0.0 0.0 0.0" Properties=species:S:1:pos:R:3:Z:I:1 pbc="F F F"
C      -0.89360960       0.12151490      -0.85178863        6 
C       0.67536084       0.06194059      -0.83721503        6 
C      -1.53278848       1.41105791      -0.35157071        6 
C       1.38986728       1.37410476      -0.54264976        6 
O      -1.35844517       1.60276005       0.97065228        8 
O      -2.17310035       2.15061431      -1.05653563        8 
O       2.72440272       1.19495013      -0.47905772        8 
O       0.87708489       2.46375222      -0.47502813        8 
C       3.51409793       2.38795168      -0.32021621        6 
C      -1.82432626       2.86238453       1.48074695        6 
C      -1.23743563      -1.14386322      -0.00023527        6 
C      -0.89674309      -2.39616022      -0.85039739        6 
C       0.64801195      -2.44962564      -0.72651404        6 
C       0.93051739      -1.17826162       0.11049781        6 
O      -0.20097091      -1.13919741       0.99201490        8 
H      -1.26909498       0.01109322      -1.86653570        1 
H       1.03790269      -0.19736352      -1.83528108        1 
H       3.26392729       2.89185797       0.61472463        1 
H      -2.89754218       2.97410020       1.31670511        1 
H      -1.36520317      -3.27922463      -0.41246920        1 
H      -1.25487068      -2.30366442      -1.87555442        1 
H       0.97354894      -3.32883472      -0.16841695        1 
H       1.17592958      -2.44773014      -1.67936645        1 
H       4.54759810       2.04865332      -0.30946377        1 
H       3.34221203       3.07141290      -1.15284378        1 
H      -1.29402445       3.67752073       0.98623551        1 
H      -1.59837789       2.84604163       2.54505330        1 
C      -2.59817258      -1.19048695       0.66456953        6 
C       2.19112235      -1.25225209       0.94839652        6 
O       3.26688566      -1.61669089       0.10467519        8 
H       2.03328136      -2.01579258       1.72377137        1 
H       2.38865551      -0.29804793       1.44981590        1 
C       4.52586104      -1.48253956       0.72955872        6 
H       5.28059396      -1.78673386       0.00378378        1 
H       4.60675025      -2.12330268       1.61947739        1 
H       4.71167152      -0.44142656       1.02803460        1 
O      -3.56662917      -1.18395724      -0.37034482        8 
H      -2.73178436      -0.33411741       1.33357262        1 
H      -2.67088836      -2.10970662       1.26436255        1 
C      -4.89394151      -1.10144825       0.11160856        6 
H      -5.55063607      -1.08646206      -0.75819719        1 
H      -5.04911209      -0.18308275       0.69425634        1 
H      -5.14756930      -1.96716477       0.73981001        1 
