43
Lattice="0.0 0.0 0.0 0.0 0.0 0.0 0.0 0.0 0.0" Properties=species:S:1:pos:R:3:Z:I:1 pbc="F F F"
C      -0.91333844       0.09553271      -0.83889474        6 
C       0.64679363      -0.05532009      -0.87465911        6 
C      -1.45415165       1.37658001      -0.22820313        6 
C       1.36367286       1.28554022      -0.80325602        6 
O      -0.76417014       1.76118020       0.86533857        8 
O      -2.44531656       1.94160254      -0.61983605        8 
O       2.51266188       1.27649511      -0.11144001        8 
O       0.95256654       2.26301151      -1.38346808        8 
C       3.25082494       2.51310747      -0.10896401        6 
C      -1.20392791       2.97900876       1.48841863        6 
C      -1.29263859      -1.13994871       0.04903315        6 
C      -1.01342204      -2.42794539      -0.76488265        6 
C       0.53004982      -2.54020841      -0.64852565        6 
C       0.87639196      -1.24435940       0.12758567        6 
O      -0.24223573      -1.13902038       1.02668994        8 
H      -1.36335895       0.02295906      -1.82533983        1 
H       0.92856806      -0.40426537      -1.87290783        1 
H       2.64754981       3.31660707       0.31526184        1 
H      -2.24018362       2.88942212       1.81836469        1 
H      -1.51722437      -3.27705857      -0.30043082        1 
H      -1.37474780      -2.34882146      -1.79001200        1 
H       0.82132620      -3.40594115      -0.05114509        1 
H       1.04468634      -2.60847966      -1.60664268        1 
H       4.12821088       2.32372670       0.50568597        1 
H       3.54434536       2.78210484      -1.12448417        1 
H      -1.12025655       3.81112529       0.78749941        1 
H      -0.54285125       3.12425380       2.34017783        1 
C      -2.64165460      -1.09769984       0.73649710        6 
C       2.15059083      -1.33007069       0.93874996        6 
O       3.21722207      -1.58519433       0.04116196        8 
H       2.04577740      -2.15619819       1.65710047        1 
H       2.31659115      -0.40427084       1.49630533        1 
C       4.48598969      -1.48640288       0.65351184        6 
H       5.23238529      -1.69150160      -0.11449099        1 
H       4.59983622      -2.21748439       1.46677249        1 
H       4.65324325      -0.47920117       1.05930357        1 
O      -3.63067276      -1.21282436      -0.26744440        8 
H      -2.76143682      -0.16378668       1.30115442        1 
H      -2.70458634      -1.93087353       1.45205491        1 
C      -4.93135710      -0.88991402       0.18901016        6 
H      -5.60766315      -1.02173350      -0.65542480        1 
H      -4.98089453       0.15256400       0.52918929        1 
H      -5.24538284      -1.55216247       1.00829145        1 
