43
Lattice="0.0 0.0 0.0 0.0 0.0 0.0 0.0 0.0 0.0" Properties=species:S:1:pos:R:3:Z:I:1 pbc="F F F"
C      -0.85537807      -0.02737818       0.87982513        6 
C       0.71665121      -0.04512719       0.81630929        6 
C      -1.50922541      -1.36355643       0.55128041        6 
C       1.35821937      -1.29983795       0.25263794        6 
O      -1.91940317      -1.48742169      -0.71833612        8 
O      -1.65963521      -2.21920653       1.39124222        8 
O       2.63750599      -1.39247433       0.67529787        8 
O       0.84389407      -2.12696537      -0.45852391        8 
C       3.37455136      -2.53398152       0.20292570        6 
C      -2.39427803      -2.78966798      -1.09861582        6 
C      -1.17856447       1.22465338       0.00365510        6 
C      -0.81763561       2.47595789       0.84878292        6 
C       0.73149006       2.47569201       0.77067170        6 
C       0.98894334       1.21752402      -0.09105692        6 
O      -0.13136354       1.20531744      -0.98247358        8 
H      -1.16074257       0.15303318       1.90934679        1 
H       1.15345017       0.11298699       1.80025217        1 
H       3.46306910      -2.50926069      -0.88490401        1 
H      -3.22979701      -3.09662812      -0.46797106        1 
H      -1.23904012       3.36793161       0.38218799        1 
H      -1.20599640       2.41363582       1.86534507        1 
H       1.10687720       3.35809870       0.24991567        1 
H       1.22922016       2.42287880       1.73803587        1 
H       4.35473621      -2.45749536       0.66822432        1 
H       2.87783855      -3.45884916       0.49931223        1 
H      -1.58203076      -3.51234278      -1.01148159        1 
H      -2.70841752      -2.69175850      -2.13592487        1 
C      -2.52938477       1.29380209      -0.68142876        6 
C       2.26935308       1.24518433      -0.90062794        6 
O       3.34375230       1.48934579      -0.01380115        8 
H       2.19138979       2.04514482      -1.65102307        1 
H       2.40898178       0.29836177      -1.44038421        1 
C       4.60941481       1.27554874      -0.60425139        6 
H       5.35956076       1.48894069       0.15739656        1 
H       4.77283490       1.94036161      -1.46438284        1 
H       4.72083897       0.23402571      -0.93639709        1 
O      -3.51535771       1.06258279       0.31179790        8 
H      -2.58518054       0.54257853      -1.47244919        1 
H      -2.65791085       2.28979338      -1.12975173        1 
C      -4.82146971       0.95776579      -0.22037567        6 
H      -5.49747038       0.78196714       0.61661141        1 
H      -4.89564593       0.11933447      -0.92623552        1 
H      -5.12094134       1.88126896      -0.73563855        1 
