43
Lattice="0.0 0.0 0.0 0.0 0.0 0.0 0.0 0.0 0.0" Properties=species:S:1:pos:R:3:Z:I:1 pbc="F F F"
C      -0.58413532       0.03635246       0.86510780        6 
C       0.95038321      -0.20665922       0.79311778        6 
C      -1.40231138      -1.24347262       0.89648173        6 
C       1.40853304      -1.42266343       0.00394723        6 
O      -2.68070815      -1.06492165       0.52132448        8 
O      -0.97248532      -2.29992629       1.29384776        8 
O       0.55541681      -1.76245858      -0.97990760        8 
O       2.48868939      -1.94351646       0.15231834        8 
C       0.93624096      -2.88432019      -1.79204312        6 
C      -3.53574553      -2.21871224       0.62634444        6 
C      -0.79098681       1.21669750      -0.16447455        6 
C      -0.47685975       2.51103637       0.61773495        6 
C       1.04416537       2.33021023       0.87884955        6 
C       1.37282957       1.08434394       0.00876418        6 
O       0.36736334       1.12449784      -1.01539548        8 
H      -0.80162890       0.44978154       1.85677470        1 
H       1.42815418      -0.26321763       1.76780251        1 
H       0.99624956      -3.78761078      -1.18268071        1 
H      -3.58744759      -2.56312561       1.66011136        1 
H      -0.67179562       3.37449085      -0.02085362        1 
H      -1.07641827       2.61509536       1.52163764        1 
H       1.62168531       3.19000361       0.53753591        1 
H       1.29058137       2.16484645       1.92813540        1 
H       0.15261790      -2.97985913      -2.54074623        1 
H       1.90126798      -2.70387578      -2.26778529        1 
H      -3.16393294      -3.02847161      -0.00315993        1 
H      -4.51317451      -1.88395493       0.28554810        1 
C      -2.02779499       1.27170632      -1.03539853        6 
C       2.75401688       1.09008898      -0.61183198        6 
O       3.68874383       1.10919011       0.45036808        8 
H       2.85887051       1.98283872      -1.24565048        1 
H       2.90038203       0.20786632      -1.24584272        1 
C       4.99127023       0.71179221       0.05993655        6 
H       5.61941576       0.76402786       0.94932883        1 
H       5.40316549       1.38153099      -0.70838366        1 
H       4.98729503      -0.31766381      -0.31882800        1 
O      -3.10952964       1.72814354      -0.24383578        8 
H      -2.24238852       0.28813936      -1.46599749        1 
H      -1.82933653       1.97365366      -1.85853022        1 
C      -4.35796784       1.59198541      -0.88875387        6 
H      -5.11898370       1.96156244      -0.20071166        1 
H      -4.56802386       0.54023049      -1.12793047        1 
H      -4.40014587       2.17922679      -1.81745746        1 
