43
Lattice="0.0 0.0 0.0 0.0 0.0 0.0 0.0 0.0 0.0" Properties=species:S:1:pos:R:3:Z:I:1 pbc="F F F"
C      -0.67776676      -0.00280140      -0.67993827        6 
C       0.88942742       0.11962762      -0.68196285        6 
C      -1.39473812       1.06403590       0.12346856        6 
C       1.44405128       1.43748841      -0.16052008        6 
O      -2.34056823       1.67095276      -0.62029570        8 
O      -1.19856357       1.32105456       1.28751350        8 
O       0.69841205       2.45900420      -0.64079385        8 
O       2.46444668       1.60912716       0.45578489        8 
C       1.09607957       3.78199168      -0.24157677        6 
C      -3.11956922       2.67184287       0.05406453        6 
C      -0.84443672      -1.41903796      -0.01820608        6 
C      -0.42728299      -2.47612067      -1.07015976        6 
C       1.11945093      -2.34907020      -1.03300956        6 
C       1.31741580      -1.21632848       0.00756615        6 
O       0.23573418      -1.45609815       0.92291817        8 
H      -1.08212876       0.00844457      -1.68813335        1 
H       1.23357934       0.10799656      -1.71992147        1 
H       2.12442280       3.98154590      -0.54512499        1 
H      -2.47726383       3.47584509       0.41771938        1 
H      -0.75742202      -3.46646990      -0.75138935        1 
H      -0.86303715      -2.27864603      -2.04956698        1 
H       1.58649318      -3.26325595      -0.66331038        1 
H       1.57007331      -2.11217398      -1.99657927        1 
H       0.40790813       4.45516148      -0.74836815        1 
H       1.00878698       3.88667554       0.84101100        1 
H      -3.65660445       2.23577528       0.89822221        1 
H      -3.81883482       3.04611522      -0.69060346        1 
C      -2.14561565      -1.69272938       0.70777798        6 
C       2.63667779      -1.26732054       0.74750480        6 
O       3.66484723      -1.10159044      -0.21520838        8 
H       2.72370115      -2.24563657       1.24269793        1 
H       2.67921744      -0.48448325       1.50822641        1 
C       4.90724231      -0.74226519       0.36166013        6 
H       5.62055255      -0.63452336      -0.45627395        1 
H       5.27015755      -1.51894961       1.05012001        1 
H       4.82453422       0.20956913       0.89953773        1 
O      -3.19942172      -1.55307258      -0.23044456        8 
H      -2.26360486      -0.99252923       1.54327889        1 
H      -2.11862180      -2.71250994       1.11788353        1 
C      -4.47969709      -1.71009949       0.34922153        6 
H      -5.21184628      -1.57408054      -0.44696809        1 
H      -4.65704313      -0.96147797       1.13391395        1 
H      -4.60417924      -2.71153641       0.78459642        1 
