43
Lattice="0.0 0.0 0.0 0.0 0.0 0.0 0.0 0.0 0.0" Properties=species:S:1:pos:R:3:Z:I:1 pbc="F F F"
C      -0.77471030      -0.09923140       0.78114030        6 
C       0.78835735       0.00135050       0.87673865        6 
C      -1.27593333      -1.30399292       0.00310405        6 
C       1.46792348      -1.35925069       0.77655539        6 
O      -2.60301990      -1.46755732       0.19018416        8 
O      -0.61192359      -2.05569095      -0.66641640        8 
O       2.27450060      -1.53028036      -0.27814324        8 
O       1.28647516      -2.20323812       1.62293793        8 
C       2.81293088      -2.85433090      -0.44121115        6 
C      -3.20029993      -2.59045490      -0.48253834        6 
C      -1.07750670       1.22639577      -0.00720002        6 
C      -0.71652483       2.43092622       0.90411104        6 
C       0.82599197       2.48595562       0.75480910        6 
C       1.09408826       1.20857792      -0.07560826        6 
O      -0.02537228       1.21536284      -0.98268842        8 
H      -1.25980820      -0.10101000       1.75489493        1 
H       1.03316677       0.30172408       1.89688012        1 
H       1.99854528      -3.56803280      -0.57167321        1 
H      -2.74526082      -3.52267958      -0.14490945        1 
H      -1.19491912       3.33832711       0.53300582        1 
H      -1.05427879       2.27767206       1.92936898        1 
H       1.13882903       3.36052390       0.18120909        1 
H       1.36662377       2.49225978       1.70075671        1 
H       3.42842070      -2.80758473      -1.33747508        1 
H       3.41318072      -3.13600486       0.42484227        1 
H      -3.07470231      -2.50140857      -1.56320760        1 
H      -4.25429997      -2.55968237      -0.21503372        1 
C      -2.41033701       1.35888682      -0.71522018        6 
C       2.38280449       1.22996696      -0.86741476        6 
O       3.45039279       1.22713439       0.06707570        8 
H       2.40666883       2.14370569      -1.47930727        1 
H       2.43618714       0.36194802      -1.52793945        1 
C       4.70860897       0.99885434      -0.53504730        6 
H       5.45482455       1.01717778       0.25983930        1 
H       4.95088412       1.77861387      -1.27115966        1 
H       4.73589051       0.02061956      -1.03350018        1 
O      -3.41729869       1.48620328       0.26931639        8 
H      -2.60032093       0.49375162      -1.36204985        1 
H      -2.37279611       2.25296040      -1.35494526        1 
C      -4.72350575       1.38673493      -0.26097238        6 
H      -5.41825675       1.49546362       0.57198795        1 
H      -4.88290709       0.40982588      -0.73782601        1 
H      -4.92089615       2.17749563      -0.99868773        1 
