43
Lattice="0.0 0.0 0.0 0.0 0.0 0.0 0.0 0.0 0.0" Properties=species:S:1:pos:R:3:Z:I:1 pbc="F F F"
C      -0.73634419      -0.04381277       0.82115623        6 
C       0.83845674       0.00169857       0.89457614        6 
C      -1.32990906      -1.37614291       0.37298341        6 
C       1.58053802      -1.29710253       0.61258712        6 
O      -2.63462488      -1.26409416       0.05439469        8 
O      -0.76331573      -2.44010854       0.40293662        8 
O       1.65168081      -1.58961388      -0.70150206        8 
O       2.07895276      -1.97352449       1.47650711        8 
C       2.21771952      -2.87081438      -1.02084627        6 
C      -3.31615357      -2.49395535      -0.25487057        6 
C      -1.02112149       1.23947225      -0.03992581        6 
C      -0.68117964       2.47266270       0.84623199        6 
C       0.86653359       2.50075477       0.77055425        6 
C       1.15156442       1.21975625      -0.04497224        6 
O       0.06103043       1.20715784      -0.98109870        8 
H      -1.15648589       0.09702683       1.82025607        1 
H       1.13955220       0.24103663       1.91241962        1 
H       1.60291984      -3.66125139      -0.58793217        1 
H      -3.25583113      -3.18557283       0.58634857        1 
H      -1.12355234       3.37176270       0.41554380        1 
H      -1.07051005       2.36751262       1.85879008        1 
H       1.22068233       3.37094609       0.21441424        1 
H       1.36114618       2.49659085       1.74155198        1 
H       2.21038101      -2.93005856      -2.10754983        1 
H       3.23589217      -2.94963371      -0.63636057        1 
H      -2.87760766      -2.96284835      -1.13714129        1 
H      -4.34916938      -2.21025168      -0.44454577        1 
C      -2.32104181       1.39497790      -0.80352060        6 
C       2.46437836       1.21071217      -0.80261133        6 
O       3.49733931       0.99209795       0.14268694        8 
H       2.59798637       2.17702629      -1.31032611        1 
H       2.44982684       0.41847380      -1.55659659        1 
C       4.75960528       0.76915847      -0.45533294        6 
H       5.47173709       0.59876826       0.35203888        1 
H       5.08462586       1.63755670      -1.04535586        1 
H       4.73802884      -0.11369707      -1.10893953        1 
O      -3.36318018       1.58935251       0.13448563        8 
H      -2.51681212       0.52383787      -1.43486636        1 
H      -2.21925404       2.27575493      -1.45473385        1 
C      -4.64557501       1.55592900      -0.45629884        6 
H      -5.37286989       1.71461931       0.34032079        1 
H      -4.83766537       0.58421412      -0.93198972        1 
H      -4.76325301       2.34679575      -1.21105487        1 
