43
Lattice="0.0 0.0 0.0 0.0 0.0 0.0 0.0 0.0 0.0" Properties=species:S:1:pos:R:3:Z:I:1 pbc="F F F"
C      -0.73947139       0.01233535       0.84340392        6 
C       0.83915303       0.09843665       0.74305203        6 
C      -1.31884937      -1.32217711       0.41160656        6 
C       1.48310257      -1.14128210       0.14581959        6 
O      -1.35338109      -1.46535669      -0.92828132        8 
O      -1.65511644      -2.18947113       1.17970153        8 
O       1.54609166      -2.10028810       1.09493076        8 
O       1.88517725      -1.29985896      -0.97942866        8 
C       2.07133443      -3.37400657       0.68365769        6 
C      -1.80212900      -2.73878156      -1.42134345        6 
C      -1.14801198       1.28975507       0.03550002        6 
C      -0.87675666       2.50133116       0.96381956        6 
C       0.67263165       2.59048418       0.90272308        6 
C       1.01493133       1.42158580      -0.05904616        6 
O      -0.11157280       1.41213325      -0.94862585        8 
H      -1.04528427       0.10958207       1.88229017        1 
H       1.25527723       0.19518547       1.74400694        1 
H       3.10521221      -3.27147240       0.34987549        1 
H      -2.81538335      -2.94987996      -1.07570325        1 
H      -1.34566238       3.39655197       0.55147700        1 
H      -1.27102966       2.34701271       1.96852134        1 
H       0.99841495       3.53198649       0.45727692        1 
H       1.16265270       2.49189271       1.87135819        1 
H       2.01160419      -4.00913270       1.56427364        1 
H       1.47254352      -3.78996993      -0.12826311        1 
H      -1.13586040      -3.53336865      -1.08117508        1 
H      -1.77128637      -2.65589411      -2.50538155        1 
C      -2.50007004       1.27159220      -0.64891616        6 
C       2.29772993       1.59170636      -0.84776637        6 
O       3.37241515       1.40896614       0.06280263        8 
H       2.32441549       2.60056429      -1.28427643        1 
H       2.33939475       0.85406370      -1.65235030        1 
C       4.63108803       1.33031623      -0.58014142        6 
H       5.37872734       1.16588725       0.19635602        1 
H       4.86825909       2.26187339      -1.11308676        1 
H       4.65841163       0.49632915      -1.29356310        1 
O      -3.45985013       0.88767220       0.32234547        8 
H      -2.48293084       0.56139704      -1.48197288        1 
H      -2.72422245       2.27184096      -1.04615915        1 
C      -4.76670028       0.76651489      -0.20623892        6 
H      -5.41430272       0.44330028       0.60872651        1 
H      -4.80250346       0.02052515      -1.01245292        1 
H      -5.13129703       1.72617400      -0.59823020        1 
