43
Lattice="0.0 0.0 0.0 0.0 0.0 0.0 0.0 0.0 0.0" Properties=species:S:1:pos:R:3:Z:I:1 pbc="F F F"
C      -0.69429193       0.03643688      -0.66259572        6 
C       0.86843122       0.13821002      -0.69805346        6 
C      -1.37211081       1.07653315       0.20927777        6 
C       1.47208170       1.47246042      -0.28706698        6 
O      -2.40454966       1.64670015      -0.44560962        8 
O      -1.08642793       1.33678955       1.35303584        8 
O       0.65647995       2.48455988      -0.65812362        8 
O       2.58408944       1.65509624       0.14062897        8 
C       1.11875413       3.81589817      -0.37224745        6 
C      -3.16127302       2.61407541       0.29943956        6 
C      -0.85725964      -1.39065262      -0.02778112        6 
C      -0.40370419      -2.43700607      -1.07815589        6 
C       1.14149722      -2.33352204      -0.97127827        6 
C       1.30220143      -1.17443490       0.04256365        6 
O       0.20205663      -1.41435686       0.93666996        8 
H      -1.13281411       0.08306610      -1.65563828        1 
H       1.18863239       0.05988672      -1.74175523        1 
H       2.08741250       3.99398568      -0.84067102        1 
H      -2.51652610       3.42711355       0.63744160        1 
H      -0.76314834      -3.42799130      -0.79578003        1 
H      -0.79380591      -2.21511336      -2.07179045        1 
H       1.57374521      -3.24171101      -0.54808382        1 
H       1.64327017      -2.13417637      -1.91772231        1 
H       0.36237096       4.47919722      -0.78632635        1 
H       1.20371334       3.95744159       0.70624713        1 
H      -3.63071148       2.14791844       1.16782700        1 
H      -3.91781642       2.98398887      -0.38936256        1 
C      -2.17275342      -1.69489855       0.65893945        6 
C       2.60307474      -1.18630818       0.81500095        6 
O       3.65681344      -1.16986969      -0.13327787        8 
H       2.63988257      -2.10504784       1.41875308        1 
H       2.66230991      -0.32531109       1.48580613        1 
C       4.89919623      -0.78728854       0.42781773        6 
H       5.63719953      -0.82468830      -0.37422896        1 
H       5.20704034      -1.47589140       1.22784833        1 
H       4.84777716       0.23261342       0.82651186        1 
O      -3.19240488      -1.63931372      -0.32378459        8 
H      -2.36101768      -0.97491726       1.46522845        1 
H      -2.11516263      -2.69685052       1.10837637        1 
C      -4.48653101      -1.83116059       0.21276340        6 
H      -5.19223100      -1.75596122      -0.61470761        1 
H      -4.72613861      -1.06297574       0.96146267        1 
H      -4.58547284      -2.82064640       0.68099897        1 
