43
Lattice="0.0 0.0 0.0 0.0 0.0 0.0 0.0 0.0 0.0" Properties=species:S:1:pos:R:3:Z:I:1 pbc="F F F"
C      -0.76347765      -0.04797002      -0.76911928        6 
C       0.79084591       0.12624342      -0.76946982        6 
C      -1.57179700       1.20997861      -0.50419459        6 
C       1.32837425       1.32026862       0.00021483        6 
O      -0.98787736       2.26053164      -1.12883981        8 
O      -2.65415821       1.28336958       0.02006223        8 
O       0.60319785       1.58717104       1.10542926        8 
O       2.33566774       1.91773595      -0.29200892        8 
C       1.04716315       2.69459537       1.90545651        6 
C      -1.68785573       3.51363609      -1.05584363        6 
C      -0.95607924      -1.32525223       0.11921966        6 
C      -0.65323766      -2.53995974      -0.79071117        6 
C       0.88000225      -2.39577046      -0.98949748        6 
C       1.20612912      -1.20542537      -0.04913406        6 
O       0.20427963      -1.31209792       0.97166106        8 
H      -1.07573832      -0.29662142      -1.78876945        1 
H       1.21577950       0.18851599      -1.76782557        1 
H       1.06046240       3.61075689       1.31221270        1 
H      -1.77482832       3.83962026      -0.01778411        1 
H      -0.90071112      -3.45864283      -0.25582208        1 
H      -1.22895161      -2.52491060      -1.71552157        1 
H       1.41648650      -3.28661982      -0.65987360        1 
H       1.17654716      -2.19528685      -2.01914383        1 
H       0.32830327       2.77152929       2.71807447        1 
H       2.04901098       2.50804665       2.29543812        1 
H      -2.68561025       3.42037673      -1.48703279        1 
H      -1.08451458       4.21507961      -1.62779822        1 
C      -2.20804008      -1.45601569       0.95930678        6 
C       2.58729920      -1.24284776       0.57068441        6 
O       3.52387270      -1.23732506      -0.48895071        8 
H       2.68267054      -2.15460661       1.17843891        1 
H       2.74218413      -0.38151076       1.23345698        1 
C       4.85229685      -1.00445411      -0.05881321        6 
H       5.48362385      -1.02604891      -0.94704623        1 
H       5.19046395      -1.78195807       0.64102093        1 
H       4.94349478      -0.02250379       0.42323121        1 
O      -3.29034686      -1.67505463       0.07057631        8 
H      -2.36691410      -0.55511064       1.55802475        1 
H      -2.08412095      -2.31265490       1.63785723        1 
C      -4.55246509      -1.43050371       0.66303946        6 
H      -5.30686299      -1.63126966      -0.09842061        1 
H      -4.63321505      -0.38632657       0.98755602        1 
H      -4.72898552      -2.09407637       1.52192631        1 
