43
Lattice="0.0 0.0 0.0 0.0 0.0 0.0 0.0 0.0 0.0" Properties=species:S:1:pos:R:3:Z:I:1 pbc="F F F"
C      -0.75780654       0.00020269       0.86370109        6 
C       0.79925053      -0.13168061       0.76284955        6 
C      -1.45131723      -1.35465800       0.80827529        6 
C       1.24776442      -1.31536412      -0.07952376        6 
O      -2.41245120      -1.47536066      -0.11623147        8 
O      -1.15268445      -2.23675092       1.57917238        8 
O       2.56502913      -1.55464083       0.09307707        8 
O       0.54430704      -1.99541094      -0.78455049        8 
C       3.09873643      -2.67474960      -0.63587769        6 
C      -3.01305077      -2.77904831      -0.22249810        6 
C      -1.05065951       1.20737157      -0.09580397        6 
C      -0.78591021       2.48169026       0.73956813        6 
C       0.75167632       2.39985275       0.92878029        6 
C       1.12042516       1.20575980       0.00619318        6 
O       0.08284014       1.21379503      -0.98601616        8 
H      -0.98619848       0.32441590       1.88205911        1 
H       1.29468967      -0.18267690       1.72957450        1 
H       3.01221754      -2.50802797      -1.71131305        1 
H      -3.51368176      -3.04844934       0.70859878        1 
H      -1.06878969       3.35977788       0.15575066        1 
H      -1.35131965       2.49873302       1.67067185        1 
H       1.25391506       3.30642176       0.58853804        1 
H       1.05863773       2.22248571       1.95989318        1 
H       4.14375591      -2.74011318      -0.34086426        1 
H       2.56539774      -3.58890881      -0.37199685        1 
H      -2.24827813      -3.52109965      -0.45406017        1 
H      -3.73188680      -2.70033434      -1.03563035        1 
C      -2.32505435       1.24134266      -0.90989742        6 
C       2.46653093       1.33395832      -0.67617227        6 
O       3.45678247       1.39799321       0.33175606        8 
H       2.46431061       2.25139304      -1.28287320        1 
H       2.64580972       0.48734238      -1.34962284        1 
C       4.77040332       1.26810542      -0.17336559        6 
H       5.44936711       1.32946842       0.67727537        1 
H       5.01133563       2.07166480      -0.88380370        1 
H       4.90651231       0.29959355      -0.67373763        1 
O      -3.40758674       1.34084873       0.00103052        8 
H      -2.41095913       0.34328857      -1.52580780        1 
H      -2.29330959       2.12120811      -1.56942713        1 
C      -4.66389871       1.14238462      -0.61441318        6 
H      -5.42299979       1.24111979       0.16215120        1 
H      -4.73150464       0.14091840      -1.06031702        1 
H      -4.85292817       1.89177838      -1.39638555        1 
