43
Lattice="0.0 0.0 0.0 0.0 0.0 0.0 0.0 0.0 0.0" Properties=species:S:1:pos:R:3:Z:I:1 pbc="F F F"
C      -0.70915535      -0.08262631      -0.78951275        6 
C       0.85362673       0.13323343      -0.80969646        6 
C      -1.53278898       1.10835143      -0.34344700        6 
C       1.29045449       1.46068623      -0.20920564        6 
O      -2.28047603       1.56668024      -1.36827607        8 
O      -1.53515247       1.61251123       0.75454567        8 
O       1.34995715       1.45462484       1.12843404        8 
O       1.55971970       2.42427210      -0.88899310        8 
C       1.60268575       2.72309724       1.75692486        6 
C      -3.12461988       2.69386557      -1.07852972        6 
C      -0.83024960      -1.35980681       0.12220967        6 
C      -0.51393095      -2.56821360      -0.78694358        6 
C       1.01159545      -2.37007392      -1.01218741        6 
C       1.31704290      -1.16355014      -0.07659813        6 
O       0.33273687      -1.30526678       0.95635381        8 
H      -1.04970801      -0.32149248      -1.79394480        1 
H       1.21321732       0.15744446      -1.83542325        1 
H       0.77676873       3.40510476       1.55054213        1 
H      -2.52539420       3.54923199      -0.76306602        1 
H      -0.71981787      -3.49324931      -0.24435388        1 
H      -1.10293358      -2.57222803      -1.70379817        1 
H       1.58138278      -3.24311295      -0.69077708        1 
H       1.27828523      -2.16435038      -2.04923129        1 
H       1.66084678       2.51048357       2.82199439        1 
H       2.53575354       3.15590633       1.39349520        1 
H      -3.83673892       2.44098832      -0.29105659        1 
H      -3.64448262       2.91253775      -2.00866934        1 
C      -2.06422842      -1.45676083       0.99247755        6 
C       2.70649626      -1.15672841       0.52842907        6 
O       3.61286027      -0.81878808      -0.50848721        8 
H       2.93170331      -2.15360903       0.93443441        1 
H       2.75479879      -0.43075206       1.34614614        1 
C       4.95443528      -0.73591037      -0.06678308        6 
H       5.56069468      -0.46086162      -0.92989035        1 
H       5.30618916      -1.69919586       0.32853072        1 
H       5.07126627       0.02931697       0.71282562        1 
O      -3.19409851      -1.33271710       0.14325898        8 
H      -2.04651454      -0.65361574       1.73832135        1 
H      -2.07139950      -2.42307318       1.51622095        1 
C      -4.41666463      -1.27452370       0.85395516        6 
H      -5.21150803      -1.16465348       0.11588870        1 
H      -4.43664229      -0.41636316       1.53939550        1 
H      -4.58856170      -2.19285097       1.43243503        1 
