43
Lattice="0.0 0.0 0.0 0.0 0.0 0.0 0.0 0.0 0.0" Properties=species:S:1:pos:R:3:Z:I:1 pbc="F F F"
C      -0.84038858       0.30971971      -0.65118411        6 
C       0.69974275       0.16927150      -0.74906934        6 
C      -1.35604187       1.31604135       0.36935491        6 
C       1.53281389       1.42788623      -0.58364065        6 
O      -2.50192501       1.87813475      -0.08998140        8 
O      -0.87679453       1.57199063       1.44097320        8 
O       2.80702459       1.17226566      -0.96026800        8 
O       1.16602575       2.51057744      -0.20618326        8 
C       3.72949582       2.26907643      -0.85084378        6 
C      -3.12537447       2.82911344       0.78962997        6 
C      -1.16825034      -1.12548938      -0.09974316        6 
C      -0.70168009      -2.20213337      -1.12388692        6 
C       0.81599011      -2.31913899      -0.80096460        6 
C       0.98760872      -1.11117267       0.14108746        6 
O      -0.19620863      -1.22912679       0.94793747        8 
H      -1.31363323       0.49823128      -1.61178512        1 
H       0.92411931      -0.12358348      -1.77774481        1 
H       3.77696137       2.62895997       0.17846823        1 
H      -2.46465951       3.68101910       0.95853391        1 
H      -1.23158440      -3.13989776      -0.95306547        1 
H      -0.90277001      -1.89482286      -2.15085091        1 
H       1.04038613      -3.23867632      -0.25741779        1 
H       1.46411212      -2.27246598      -1.67557686        1 
H       4.69169080       1.86839171      -1.16245762        1 
H       3.42680725       3.09141250      -1.50138705        1 
H      -3.36314524       2.36802676       1.75019026        1 
H      -4.03414075       3.14291215       0.28015331        1 
C      -2.55794689      -1.34677143       0.46083159        6 
C       2.19910112      -1.11308744       1.05026410        6 
O       3.33396805      -1.49355935       0.29542575        8 
H       2.01597599      -1.82908831       1.86400502        1 
H       2.33747964      -0.12178481       1.50265243        1 
C       4.55024442      -1.26661741       0.97575611        6 
H       5.35350026      -1.60204845       0.31912979        1 
H       4.59970641      -1.82988012       1.91870653        1 
H       4.68872133      -0.19888741       1.19729175        1 
O      -3.46685545      -1.29754478      -0.62316326        8 
H      -2.80212736      -0.58565144       1.21335891        1 
H      -2.58912505      -2.32806998       0.95653066        1 
C      -4.81973147      -1.32778344      -0.21234349        6 
H      -5.43022435      -1.28543632      -1.11444904        1 
H      -5.05986468      -0.46608491       0.42566818        1 
H      -5.05330850      -2.25107389       0.33653471        1 
