43
Lattice="0.0 0.0 0.0 0.0 0.0 0.0 0.0 0.0 0.0" Properties=species:S:1:pos:R:3:Z:I:1 pbc="F F F"
C      -0.83887201       0.08446851      -0.71031488        6 
C       0.71005735       0.20172213      -0.64159559        6 
C      -1.62705516       1.36683268      -0.51128786        6 
C       1.16786082       1.20739534       0.40731613        6 
O      -0.97012389       2.39784175      -1.09337273        8 
O      -2.76307574       1.45598818      -0.11875330        8 
O       2.49732696       1.42792929       0.31494641        8 
O       0.46027746       1.78730420       1.19270957        8 
C       3.04151024       2.38248358       1.24402462        6 
C      -1.63529103       3.67057552      -1.05175581        6 
C      -1.13174059      -1.20827033       0.13004328        6 
C      -0.97125576      -2.39057630      -0.84731888        6 
C       0.54255586      -2.28668024      -1.17430805        6 
C       1.02903313      -1.24836540      -0.12233537        6 
O       0.05985642      -1.35816205       0.93306573        8 
H      -1.09307061      -0.14540445      -1.75085445        1 
H       1.19000303       0.42234051      -1.59204613        1 
H       2.91926750       2.03071859       2.27004664        1 
H      -1.77082670       3.98937277      -0.01701629        1 
H      -1.20594168      -3.32173587      -0.32832636        1 
H      -1.62316968      -2.31230022      -1.71691926        1 
H       1.06140786      -3.23587628      -1.03596748        1 
H       0.74353560      -1.94982622      -2.19218318        1 
H       4.09617328       2.46414034       0.99005648        1 
H       2.54316774       3.34675179       1.13587645        1 
H      -2.60740911       3.61352910      -1.54388978        1 
H      -0.97780728       4.35860882      -1.57919174        1 
C      -2.35749449      -1.25509216       1.01648823        6 
C       2.41184400      -1.53256360       0.42591052        6 
O       3.32473523      -1.44486537      -0.65201986        8 
H       2.41340689      -2.54357444       0.85916566        1 
H       2.67674003      -0.82587969       1.22022219        1 
C       4.67499584      -1.49331107      -0.23656381        6 
H       5.29061185      -1.42010100      -1.13328091        1 
H       4.90457664      -2.43611708       0.28001636        1 
H       4.91200731      -0.65526984       0.43323078        1 
O      -3.47970954      -1.47169057       0.17801018        8 
H      -2.46156299      -0.32473050       1.58205439        1 
H      -2.23873621      -2.08673797       1.72624676        1 
C      -4.70673530      -1.11247464       0.78584895        6 
H      -5.49417804      -1.32311512       0.06135844        1 
H      -4.71842246      -0.04510089       1.03444928        1 
H      -4.89334502      -1.70223066       1.69520497        1 
