43
Lattice="0.0 0.0 0.0 0.0 0.0 0.0 0.0 0.0 0.0" Properties=species:S:1:pos:R:3:Z:I:1 pbc="F F F"
C      -0.80966884       0.12226277       0.92934086        6 
C       0.76978921       0.07247399       0.87059500        6 
C      -1.51595195      -1.20364701       0.73343365        6 
C       1.29208825      -1.32124616       0.54201078        6 
O      -1.31138013      -1.71113603      -0.50476922        8 
O      -2.17256691      -1.75655203       1.57694959        8 
O       2.03023553      -1.41047590      -0.57436765        8 
O       1.03986791      -2.27480812       1.24019568        8 
C       2.50687388      -2.72598011      -0.91063885        6 
C      -1.84360334      -3.02696156      -0.73506661        6 
C      -1.11162002       1.24090491      -0.13796829        6 
C      -0.87411453       2.59187019       0.56850147        6 
C       0.66886971       2.57114816       0.72076553        6 
C       1.05746244       1.28249720      -0.06572119        6 
O       0.00562816       1.16845598      -1.03802117        8 
H      -1.13424807       0.45501908       1.91215813        1 
H       1.16561836       0.26556458       1.86857111        1 
H       1.66767564      -3.40635206      -1.06143981        1 
H      -2.92400781      -3.03712422      -0.58391858        1 
H      -1.19996665       3.40609671      -0.08195385        1 
H      -1.41496135       2.67290645       1.51109843        1 
H       1.13181488       3.44339586       0.25731717        1 
H       1.00285322       2.53218486       1.75799685        1 
H       3.06836903      -2.60138666      -1.83422755        1 
H       3.14762673      -3.11535922      -0.11849642        1 
H      -1.37779767      -3.74066822      -0.05365291        1 
H      -1.59874925      -3.26280610      -1.76892312        1 
C      -2.39890552       1.12263546      -0.92609207        6 
C       2.40113254       1.37718630      -0.76190064        6 
O       3.39942438       1.28738793       0.24266072        8 
H       2.46401759       2.34335862      -1.28357210        1 
H       2.50991850       0.57574453      -1.49496992        1 
C       4.71109389       1.27239866      -0.28449465        6 
H       5.39688327       1.18457992       0.55849993        1 
H       4.93464990       2.19804308      -0.83353861        1 
H       4.85738223       0.41787018      -0.95952944        1 
O      -3.46607186       1.11596983       0.00514120        8 
H      -2.38820085       0.20169632      -1.51957865        1 
H      -2.48112343       1.97724687      -1.61339065        1 
C      -4.72768150       0.89393064      -0.59509338        6 
H      -5.46706124       0.88678302       0.20555331        1 
H      -4.75554132      -0.07185834      -1.11830049        1 
H      -4.97715566       1.68998100      -1.31069188        1 
