43
Lattice="0.0 0.0 0.0 0.0 0.0 0.0 0.0 0.0 0.0" Properties=species:S:1:pos:R:3:Z:I:1 pbc="F F F"
C      -0.71511014       0.15519955       0.96300854        6 
C       0.85616998       0.03698233       0.89006504        6 
C      -1.55816624      -1.10814768       0.93725956        6 
C       1.46359939      -1.27669975       0.42120356        6 
O      -1.44825208      -1.81646675      -0.20293654        8 
O      -2.30342119      -1.41981896       1.83482496        8 
O       1.19696007      -1.56919455      -0.86159838        8 
O       2.19570691      -1.94623142       1.11304248        8 
C       1.74034872      -2.80197793      -1.35660764        6 
C      -2.26103314      -3.00033192      -0.29056898        6 
C      -0.99833432       1.22607543      -0.16629032        6 
C      -0.74521969       2.60330461       0.48304670        6 
C       0.79631305       2.55239191       0.66953142        6 
C       1.16493876       1.23486074      -0.07011329        6 
O       0.12592305       1.10889771      -1.04838773        8 
H      -0.97106978       0.59168387       1.92571120        1 
H       1.28772878       0.20254420       1.87404819        1 
H       1.36266591      -3.64561351      -0.77609358        1 
H      -3.31881357      -2.74673897      -0.20252590        1 
H      -1.03497530       3.39140552      -0.21490284        1 
H      -1.30086281       2.74497566       1.40984131        1 
H       1.29023559       3.39976743       0.19180294        1 
H       1.10934352       2.53378818       1.71361986        1 
H       1.40724845      -2.86889568      -2.39016354        1 
H       2.83062420      -2.79520503      -1.30293098        1 
H      -1.99723618      -3.70407112       0.50033227        1 
H      -2.04701033      -3.42487441      -1.26925566        1 
C      -2.27131921       1.08190086      -0.97128106        6 
C       2.52188969       1.24318644      -0.74414306        6 
O       3.49682961       1.30526772       0.28119596        8 
H       2.59051313       2.11801854      -1.40717873        1 
H       2.65203958       0.34404124      -1.35726949        1 
C       4.82041118       1.16888902      -0.19956108        6 
H       5.48148038       1.21215996       0.66581579        1 
H       5.08131666       1.97967163      -0.89423481        1 
H       4.96019248       0.20593260      -0.70978633        1 
O      -3.35983944       1.15476069      -0.06935957        8 
H      -2.26517268       0.12436558      -1.50521788        1 
H      -2.31959971       1.89130696      -1.71440831        1 
C      -4.61158785       0.92741093      -0.68690690        6 
H      -5.37046207       0.99269486       0.09252307        1 
H      -4.65389246      -0.06958791      -1.14754375        1 
H      -4.82081569       1.68074399      -1.45937191        1 
