43
Lattice="0.0 0.0 0.0 0.0 0.0 0.0 0.0 0.0 0.0" Properties=species:S:1:pos:R:3:Z:I:1 pbc="F F F"
C      -0.75762901      -0.24540883       0.61265974        6 
C       0.80895625      -0.05696049       0.68627359        6 
C      -1.17111484      -1.42522924      -0.28170558        6 
C       1.69392082      -1.28531491       0.55450496        6 
O      -1.95371185      -1.08910735      -1.32190108        8 
O      -0.83328213      -2.56734287      -0.08357027        8 
O       1.33849418      -2.17761462       1.49704918        8 
O       2.70037981      -1.38894476      -0.10418603        8 
C       2.05042149      -3.42448066       1.50283165        6 
C      -2.35792501      -2.16976960      -2.18198316        6 
C      -1.12718988       1.17985992       0.10405289        6 
C      -0.64989730       2.22084359       1.16912651        6 
C       0.84234036       2.41317961       0.79713415        6 
C       1.03149732       1.23525823      -0.17827349        6 
O      -0.17399335       1.33295737      -0.96472582        8 
H      -1.16884551      -0.46013133       1.59859606        1 
H       1.01833036       0.21760201       1.72363941        1 
H       3.11945403      -3.25940179       1.64657466        1 
H      -2.93444614      -2.90815459      -1.62309461        1 
H      -1.21934091       3.14577634       1.07576160        1 
H      -0.79705658       1.85105883       2.18539556        1 
H       1.00545036       3.35178000       0.26356194        1 
H       1.52551515       2.37771896       1.64526271        1 
H       1.63222804      -3.99171597       2.33128952        1 
H       1.88316749      -3.95303175       0.56290079        1 
H      -1.48423180      -2.65270057      -2.62146190        1 
H      -2.96909707      -1.70805273      -2.95482657        1 
C      -2.53524082       1.46032084      -0.39377270        6 
C       2.23845468       1.32609609      -1.08699889        6 
O       3.37650505       1.50827893      -0.26257024        8 
H       2.10213180       2.18793313      -1.75666083        1 
H       2.33512444       0.42053165      -1.69273301        1 
C       4.59381164       1.22016494      -0.92526145        6 
H       5.39549585       1.38606896      -0.20488894        1 
H       4.74848095       1.88331490      -1.78872954        1 
H       4.61672995       0.17619783      -1.25925933        1 
O      -3.43203142       1.00920130       0.60971226        8 
H      -2.72336075       0.95508274      -1.34127097        1 
H      -2.64584466       2.54358135      -0.54836703        1 
C      -4.78826764       1.21458594       0.26610873        6 
H      -5.39177269       0.82790627       1.08764231        1 
H      -5.05051150       0.67916784      -0.65695851        1 
H      -5.01053335       2.28231522       0.12929609        1 
