43
Lattice="0.0 0.0 0.0 0.0 0.0 0.0 0.0 0.0 0.0" Properties=species:S:1:pos:R:3:Z:I:1 pbc="F F F"
C      -0.70914028       0.24055221      -0.63445391        6 
C       0.83556253       0.07357518      -0.70996053        6 
C      -1.11498765       1.25667480       0.43133227        6 
C       1.66165693       1.33557107      -0.53423208        6 
O      -2.45664763       1.39221720       0.48726055        8 
O      -0.36459377       1.93293650       1.09021445        8 
O       1.07107052       2.34908036      -1.21216431        8 
O       2.77572885       1.41252150      -0.08187465        8 
C       1.75628713       3.61072863      -1.17869381        6 
C      -2.95475643       2.37050510       1.41829397        6 
C      -1.06952631      -1.20875862      -0.14297122        6 
C      -0.58262390      -2.24669363      -1.19807113        6 
C       0.91841348      -2.39890152      -0.83548513        6 
C       1.08929119      -1.21982880       0.14199204        6 
O      -0.11827934      -1.34469190       0.92800414        8 
H      -1.18406631       0.49911408      -1.57857232        1 
H       1.07377712      -0.17618613      -1.74937976        1 
H       2.76929939       3.51079599      -1.57116189        1 
H      -2.57553188       3.36210560       1.16703099        1 
H      -1.13125330      -3.18255513      -1.08709530        1 
H      -0.74951901      -1.89183606      -2.21606539        1 
H       1.11069637      -3.33585934      -0.30931798        1 
H       1.59357970      -2.34212609      -1.68888197        1 
H       1.16640142       4.27838498      -1.80348422        1 
H       1.79836572       3.98481681      -0.15424421        1 
H      -2.65361407       2.11909108       2.43646524        1 
H      -4.03763262       2.33820098       1.31877547        1 
C      -2.46448350      -1.49571465       0.37444872        6 
C       2.29808351      -1.28619847       1.04986488        6 
O       3.43153584      -1.52159422       0.23193124        8 
H       2.15295393      -2.11508311       1.75788509        1 
H       2.40641274      -0.35636059       1.61548216        1 
C       4.65239356      -1.17180750       0.85792085        6 
H       5.44938700      -1.39736879       0.14852077        1 
H       4.81668424      -1.75656980       1.77477632        1 
H       4.67203051      -0.10277498       1.09829089        1 
O      -3.35928800      -1.35997498      -0.71429531        8 
H      -2.73804871      -0.81962406       1.18993391        1 
H      -2.47954989      -2.52416581       0.76501475        1 
C      -4.71468502      -1.47139075      -0.32925995        6 
H      -5.31666347      -1.35452284      -1.23065523        1 
H      -4.98789384      -0.68796224       0.39119502        1 
H      -4.92687779      -2.45264355       0.11873870        1 
