43
Lattice="0.0 0.0 0.0 0.0 0.0 0.0 0.0 0.0 0.0" Properties=species:S:1:pos:R:3:Z:I:1 pbc="F F F"
C      -0.71452305      -0.00533513       0.81574617        6 
C       0.85710568      -0.05404400       0.87162117        6 
C      -1.39583474      -1.22919057       0.23872937        6 
C       1.42180720      -1.41962168       0.50532091        6 
O      -2.57272008      -1.44308886       0.86118022        8 
O      -0.98995160      -1.92396492      -0.66123219        8 
O       1.89425793      -1.52087826      -0.74282747        8 
O       1.43082018      -2.33062203       1.30050244        8 
C       2.27418264      -2.84343677      -1.16209323        6 
C      -3.34859341      -2.55532947       0.38090519        6 
C      -0.93902585       1.26653949      -0.09086440        6 
C      -0.65277475       2.50937060       0.78221214        6 
C       0.89395034       2.44778542       0.89156789        6 
C       1.22581620       1.20181672       0.02387712        6 
O       0.18892968       1.23154433      -0.97158528        8 
H      -1.13971660       0.16552818       1.80168178        1 
H       1.17571772       0.08513232       1.90358748        1 
H       1.40523464      -3.50119086      -1.12517510        1 
H      -2.79991079      -3.48867251       0.51601550        1 
H      -0.97993831       3.40729298       0.25484686        1 
H      -1.17380209       2.47443926       1.73812224        1 
H       1.35927167       3.33404736       0.45693751        1 
H       1.25797377       2.34503598       1.91415562        1 
H       2.62596685      -2.73181558      -2.18565370        1 
H       3.06353401      -3.23934636      -0.52166758        1 
H      -3.58597467      -2.42928669      -0.67690259        1 
H      -4.25652562      -2.55370071       0.97989806        1 
C      -2.20992141       1.32880123      -0.91357952        6 
C       2.58642059       1.23571311      -0.64360320        6 
O       3.54953449       0.93211113       0.35351711        8 
H       2.76501618       2.23722426      -1.06100995        1 
H       2.61910603       0.50519228      -1.45490692        1 
C       4.85071796       0.75614414      -0.17176852        6 
H       5.50935053       0.53007228       0.66714032        1 
H       5.20895432       1.66591609      -0.67371637        1 
H       4.87928847      -0.07685977      -0.88744902        1 
O      -3.29565046       1.53530030      -0.02996855        8 
H      -2.34112778       0.40420765      -1.49270107        1 
H      -2.12263366       2.15944257      -1.62889316        1 
C      -4.55199306       1.46649972      -0.67418304        6 
H      -5.31330290       1.64187190       0.08601194        1 
H      -4.71555702       0.47773756      -1.12538582        1 
H      -4.64490858       2.23085637      -1.45863155        1 
