43
Lattice="0.0 0.0 0.0 0.0 0.0 0.0 0.0 0.0 0.0" Properties=species:S:1:pos:R:3:Z:I:1 pbc="F F F"
C      -0.77901392       0.18481672       0.93709344        6 
C       0.79867821       0.07871662       0.86769252        6 
C      -1.51817100      -1.13300614       0.83072371        6 
C       1.26260926      -1.32134755       0.48243745        6 
O      -1.47243379      -1.64519923      -0.42141929        8 
O      -2.03418284      -1.69679421       1.75994459        8 
O       1.87169495      -1.41466899      -0.71035906        8 
O       1.05343877      -2.27955669       1.18786164        8 
C       2.25102829      -2.74076818      -1.11954140        6 
C      -2.03257669      -2.96061123      -0.57695427        6 
C      -1.05502627       1.28406424      -0.15470063        6 
C      -0.80254191       2.64072152       0.53499441        6 
C       0.73541605       2.58130073       0.72789726        6 
C       1.11377302       1.28802704      -0.05755846        6 
O       0.07169284       1.18881417      -1.04223784        8 
H      -1.06731486       0.56604416       1.91395495        1 
H       1.21193590       0.23425219       1.86410196        1 
H       1.36928876      -3.37877660      -1.19457118        1 
H      -3.09265852      -2.95986284      -0.31821130        1 
H      -1.08788951       3.45075279      -0.13936891        1 
H      -1.36364394       2.75350286       1.46274221        1 
H       1.23237205       3.44616527       0.28640667        1 
H       1.03939146       2.52423153       1.77376723        1 
H       2.71888501      -2.61885926      -2.09421172        1 
H       2.95093110      -3.17798353      -0.40633884        1 
H      -1.50556601      -3.66838254       0.06461003        1 
H      -1.89537900      -3.21238781      -1.62686435        1 
C      -2.33539932       1.16408897      -0.95433375        6 
C       2.47136461       1.35164645      -0.73161973        6 
O       3.44895930       1.17065640       0.28103287        8 
H       2.58962881       2.33408429      -1.21149629        1 
H       2.55152413       0.57701582      -1.49684322        1 
C       4.76784507       1.12590616      -0.22691988        6 
H       5.43556747       0.97478061       0.62153641        1 
H       5.03626931       2.06452164      -0.73175744        1 
H       4.89179625       0.29595008      -0.93613892        1 
O      -3.40355642       1.06294698      -0.02834149        8 
H      -2.28672592       0.27643580      -1.59363069        1 
H      -2.45274084       2.05151863      -1.59291203        1 
C      -4.65744542       0.84676625      -0.64662101        6 
H      -5.39662496       0.75749803       0.14935683        1 
H      -4.65456659      -0.07754433      -1.24082308        1 
H      -4.93170251       1.68557684      -1.30149378        1 
