43
Lattice="0.0 0.0 0.0 0.0 0.0 0.0 0.0 0.0 0.0" Properties=species:S:1:pos:R:3:Z:I:1 pbc="F F F"
C      -0.66704108      -0.04394360       0.83444739        6 
C       0.86394577      -0.30779484       0.72740376        6 
C      -1.51398050      -1.29018664       1.04396390        6 
C       1.14842843      -1.44237728      -0.27187170        6 
O      -2.68566407      -1.27549943       0.38529116        8 
O      -1.16702563      -2.18889763       1.76920865        8 
O       2.41688746      -1.41755125      -0.73209461        8 
O       0.40431991      -2.35861511      -0.51660018        8 
C       2.79438804      -2.51310954      -1.58627431        6 
C      -3.51860785      -2.43468069       0.57283348        6 
C      -0.89311691       1.11495880      -0.21071341        6 
C      -0.71060910       2.41132985       0.60033088        6 
C       0.76664820       2.23898438       1.04634271        6 
C       1.26382206       1.08273861       0.11879690        6 
O       0.33027853       1.11464367      -0.98436106        8 
H      -0.81027257       0.41931171       1.81749567        1 
H       1.34188816      -0.54310132       1.67691758        1 
H       2.15974666      -2.54225439      -2.47306147        1 
H      -3.81151956      -2.52998691       1.61948171        1 
H      -0.83108007       3.27378605      -0.05819054        1 
H      -1.42127262       2.49975343       1.42159825        1 
H       1.35541992       3.14014893       0.87610260        1 
H       0.87240912       1.98008806       2.10100018        1 
H       3.82948479      -2.32113659      -1.86141554        1 
H       2.70709349      -3.46005464      -1.05179418        1 
H      -2.98611618      -3.33459533       0.26306111        1 
H      -4.39251189      -2.26752855      -0.05361240        1 
C      -2.06964097       1.08519186      -1.16163996        6 
C       2.67314121       1.32697412      -0.38791632        6 
O       3.55064136       1.14883113       0.71074919        8 
H       2.72919185       2.36019600      -0.76259736        1 
H       2.92735222       0.65113767      -1.20483697        1 
C       4.91323189       1.21980034       0.34131107        6 
H       5.50155882       1.07012884       1.24689359        1 
H       5.16275797       2.19937359      -0.09076149        1 
H       5.16670564       0.43756748      -0.38753893        1 
O      -3.22364711       1.49596049      -0.45058309        8 
H      -2.20232132       0.08198619      -1.57898928        1 
H      -1.85706693       1.78216181      -1.98577372        1 
C      -4.41948226       1.27375437      -1.16789713        6 
H      -5.24101035       1.61922816      -0.53959787        1 
H      -4.55690129       0.20631212      -1.38763556        1 
H      -4.43301015       1.83376140      -2.11411620        1 
