43
Lattice="0.0 0.0 0.0 0.0 0.0 0.0 0.0 0.0 0.0" Properties=species:S:1:pos:R:3:Z:I:1 pbc="F F F"
C      -0.81929021       0.03421791      -0.67538216        6 
C       0.73732433       0.27851410      -0.60751569        6 
C      -1.72827712       1.24131341      -0.51314396        6 
C       1.09652999       1.44914510       0.32328445        6 
O      -1.46951945       2.11126108      -1.50894750        8 
O      -2.67658068       1.34684380       0.22545188        8 
O       2.01980891       1.16068776       1.25435624        8 
O       0.62572629       2.55603300       0.21448439        8 
C       2.39556951       2.24340181       2.12592958        6 
C      -2.20542023       3.34393543      -1.48494323        6 
C      -0.99081615      -1.27138646       0.18064801        6 
C      -0.77551651      -2.43260202      -0.80915661        6 
C       0.70300600      -2.18487898      -1.20093454        6 
C       1.16145943      -1.14341826      -0.12783436        6 
O       0.22748705      -1.33991474       0.95167478        8 
H      -1.02998570      -0.23711403      -1.71304407        1 
H       1.14048078       0.53231162      -1.58778077        1 
H       1.52743255       2.60443967       2.67859111        1 
H      -1.95680678       3.90551159      -0.58297324        1 
H      -0.89587505      -3.38074261      -0.28133484        1 
H      -1.47347600      -2.41384293      -1.64581339        1 
H       1.30391425      -3.09135644      -1.12741705        1 
H       0.82317799      -1.79808926      -2.21438271        1 
H       3.13422637       1.82188753       2.80438205        1 
H       2.82323659       3.06542689       1.55040415        1 
H      -3.27958958       3.15491260      -1.51720008        1 
H      -1.88442274       3.88949700      -2.36960670        1 
C      -2.18593967      -1.40784071       1.09864679        6 
C       2.58229488      -1.39402200       0.34757044        6 
O       3.45299075      -0.92895350      -0.67201783        8 
H       2.71515836      -2.47507058       0.50094387        1 
H       2.77651172      -0.88482602       1.29156591        1 
C       4.81832069      -1.08943843      -0.34198175        6 
H       5.40101948      -0.69974701      -1.17706389        1 
H       5.07305564      -2.14791649      -0.19008497        1 
H       5.07584130      -0.53117467       0.56882026        1 
O      -3.32660630      -1.59179931       0.27716167        8 
H      -2.29509639      -0.51819759       1.72484876        1 
H      -2.02805850      -2.28238111       1.74684183        1 
C      -4.54507822      -1.35058808       0.95676761        6 
H      -5.34892731      -1.51841156       0.23922500        1 
H      -4.59077502      -0.31644145       1.31792206        1 
H      -4.67544154      -2.03880929       1.80441912        1 
