43
Lattice="0.0 0.0 0.0 0.0 0.0 0.0 0.0 0.0 0.0" Properties=species:S:1:pos:R:3:Z:I:1 pbc="F F F"
C      -0.65884556      -0.07989865      -0.72167860        6 
C       0.85002909       0.31885450      -0.62203777        6 
C      -1.67853568       1.03894602      -0.63218744        6 
C       1.18849469       1.41236276       0.39742543        6 
O      -1.32342589       2.02170589      -1.49547094        8 
O      -2.73734076       1.02513419      -0.05737553        8 
O       0.10516328       2.07073476       0.85013614        8 
O       2.29271311       1.61274620       0.84326213        8 
C       0.32634051       3.03599397       1.89340628        6 
C      -2.21600761       3.14361128      -1.57025346        6 
C      -0.74073121      -1.36270138       0.18147600        6 
C      -0.39546536      -2.53743243      -0.75455251        6 
C       1.06714938      -2.17462682      -1.12016856        6 
C       1.39887725      -1.05478468      -0.08588989        6 
O       0.45829681      -1.28838643       0.98145212        8 
H      -0.81596559      -0.40995791      -1.75374640        1 
H       1.28660137       0.59459387      -1.58096202        1 
H       0.99663078       3.82341751       1.54619832        1 
H      -2.28692555       3.63683170      -0.59882729        1 
H      -0.44698833      -3.47316328      -0.19485313        1 
H      -1.07025791      -2.60764393      -1.60695568        1 
H       1.74487807      -3.01852699      -0.99292233        1 
H       1.18371894      -1.81954523      -2.14512390        1 
H      -0.65741666       3.43900531       2.12396033        1 
H       0.75944972       2.55251469       2.76994544        1 
H      -3.21153605       2.82537552      -1.88394817        1 
H      -1.77884168       3.81525326      -2.30615392        1 
C      -1.94198530      -1.56875753       1.07816263        6 
C       2.81601928      -1.14354564       0.44231149        6 
O       3.68438035      -0.88104985      -0.64671089        8 
H       2.97374387      -2.16255165       0.82690409        1 
H       2.98039968      -0.43455699       1.25524022        1 
C       5.03051633      -0.70563629      -0.24628378        6 
H       5.61216677      -0.51672586      -1.14904116        1 
H       5.42272611      -1.60538446       0.24934707        1 
H       5.12975359       0.14936037       0.43430190        1 
O      -3.02742296      -1.95326770       0.25221245        8 
H      -2.17417601      -0.65263508       1.62862088        1 
H      -1.70208619      -2.36431577       1.79877746        1 
C      -4.28601087      -1.80071902       0.88186122        6 
H      -5.04132398      -2.13526799       0.16985390        1 
H      -4.46843255      -0.75026026       1.13747599        1 
H      -4.35727104      -2.41509655       1.79102757        1 
