43
Lattice="0.0 0.0 0.0 0.0 0.0 0.0 0.0 0.0 0.0" Properties=species:S:1:pos:R:3:Z:I:1 pbc="F F F"
C      -0.68370959       0.03620598       0.82360189        6 
C       0.86356085      -0.22233326       0.72541580        6 
C      -1.54707427      -1.19539042       1.05752723        6 
C       1.17146354      -1.49386112      -0.08548577        6 
O      -2.49203789      -1.40498799       0.12206401        8 
O      -1.35268432      -1.93980489       1.98429229        8 
O       2.16246952      -1.35367705      -0.98596683        8 
O       0.63506183      -2.55733204       0.10398941        8 
C       2.50209325      -2.53595323      -1.73251975        6 
C      -3.28241871      -2.59584202       0.29611219        6 
C      -0.90474401       1.16549555      -0.25296389        6 
C      -0.69021793       2.48483557       0.51420867        6 
C       0.79515032       2.31477486       0.92488859        6 
C       1.25604684       1.11760048       0.02680221        6 
O       0.29664162       1.11937148      -1.05285340        8 
H      -0.82099114       0.52440833       1.79269351        1 
H       1.31429004      -0.35423771       1.70873290        1 
H       1.63820444      -2.89016934      -2.29620141        1 
H      -3.84016513      -2.54943661       1.23251426        1 
H      -0.82181837       3.32610753      -0.16948093        1 
H      -1.37769308       2.60535043       1.35098834        1 
H       1.38662325       3.20344075       0.70592434        1 
H       0.92624329       2.09350327       1.98533280        1 
H       3.30002508      -2.23101090      -2.40684273        1 
H       2.84383976      -3.32628699      -1.06301857        1 
H      -2.63941000      -3.47651141       0.30006554        1 
H      -3.96316726      -2.61739337      -0.55279071        1 
C      -2.11315575       1.12740012      -1.16039760        6 
C       2.66252649       1.32343319      -0.50928373        6 
O       3.55480216       1.09458340       0.57019879        8 
H       2.74882674       2.36058154      -0.86575273        1 
H       2.87439505       0.65216474      -1.34073691        1 
C       4.91273245       1.20650949       0.19314031        6 
H       5.51256635       1.00820965       1.08181572        1 
H       5.14500317       2.21472594      -0.17836396        1 
H       5.17062166       0.47603805      -0.58629482        1 
O      -3.25350366       1.40482665      -0.36433532        8 
H      -2.20074517       0.14981592      -1.64337481        1 
H      -1.98976983       1.89582408      -1.93758958        1 
C      -4.47014630       1.16663012      -1.04141600        6 
H      -5.27729791       1.41634936      -0.35199063        1 
H      -4.55984191       0.11212002      -1.33493299        1 
H      -4.56159614       1.79345636      -1.94015306        1 
