43
Lattice="0.0 0.0 0.0 0.0 0.0 0.0 0.0 0.0 0.0" Properties=species:S:1:pos:R:3:Z:I:1 pbc="F F F"
C      -0.70079658      -0.07226085      -0.79750547        6 
C       0.86148609       0.13875618      -0.81247169        6 
C      -1.53124077       1.11718475      -0.36080952        6 
C       1.30635423       1.46469791      -0.21315593        6 
O      -2.35225564       1.50349059      -1.35894331        8 
O      -1.48140622       1.67776796       0.70839168        8 
O       1.37366457       1.45952556       1.12390418        8 
O       1.58281909       2.42418127      -0.89580384        8 
C       1.63306772       2.72833967       1.74879548        6 
C      -3.21827245       2.61385941      -1.07011017        6 
C      -0.82815861      -1.34332160       0.12717099        6 
C      -0.52113721      -2.56030615      -0.77253110        6 
C       1.00388130      -2.36757586      -1.00731423        6 
C       1.31942319      -1.15839993      -0.07771015        6 
O       0.33670863      -1.28898131       0.95809449        8 
H      -1.03983815      -0.32165504      -1.79978639        1 
H       1.22332718       0.16046700      -1.83757613        1 
H       0.80716015       3.41130806       1.54576753        1 
H      -2.63465414       3.49478597      -0.79929769        1 
H      -0.72651241      -3.47994743      -0.22057072        1 
H      -1.11496461      -2.57072335      -1.68613872        1 
H       1.57299194      -3.24144467      -0.68707013        1 
H       1.26450373      -2.16598726      -2.04673557        1 
H       1.69719508       2.51739704       2.81390144        1 
H       2.56495956       3.15862645       1.37934141        1 
H      -3.89529254       2.36316600      -0.25130889        1 
H      -3.77752982       2.79045610      -1.98629502        1 
C      -2.05676487      -1.42572597       1.00645835        6 
C       2.71092094      -1.15858576       0.52276673        6 
O       3.61596567      -0.83448538      -0.51966729        8 
H       2.92968148      -2.15465639       0.93433015        1 
H       2.76777622      -0.42781695       1.33555997        1 
C       4.95938542      -0.75536936      -0.08288971        6 
H       5.56451995      -0.49202082      -0.95042790        1 
H       5.30675442      -1.71694512       0.32037923        1 
H       5.08299551       0.01647766       0.68907605        1 
O      -3.19395533      -1.33061644       0.16444018        8 
H      -2.03830720      -0.60442413       1.73287009        1 
H      -2.05232773      -2.37809072       1.55527883        1 
C      -4.41040192      -1.25647450       0.88388409        6 
H      -5.21236599      -1.17375537       0.15004343        1 
H      -4.42890554      -0.37722914       1.54232035        1 
H      -4.57221848      -2.15681228       1.49273223        1 
