43
Lattice="0.0 0.0 0.0 0.0 0.0 0.0 0.0 0.0 0.0" Properties=species:S:1:pos:R:3:Z:I:1 pbc="F F F"
C      -0.79794282      -0.06980260      -0.74356502        6 
C       0.77275049       0.06172253      -0.80720971        6 
C      -1.54659313       1.12885829      -0.18204713        6 
C       1.43743554       1.32135672      -0.28546197        6 
O      -1.71008443       2.04005271      -1.17275516        8 
O      -1.92341640       1.31271191       0.94580889        8 
O       0.87434891       1.78301526       0.84194023        8 
O       2.41905906       1.81506177      -0.78867725        8 
C       1.46524909       2.95303090       1.42997496        6 
C      -2.35233806       3.27028784      -0.79745632        6 
C      -0.95297388      -1.39392420       0.07223889        6 
C      -0.57053753      -2.56474573      -0.87094829        6 
C       0.97641847      -2.44669262      -0.90742868        6 
C       1.20528281      -1.21890952       0.00560921        6 
O       0.16311899      -1.34521756       0.97725726        8 
H      -1.17693262      -0.20509197      -1.75516175        1 
H       1.11896429      -0.02373448      -1.83457618        1 
H       1.45024037       3.78423538       0.72309046        1 
H      -1.78004392       3.77719372      -0.01850634        1 
H      -0.88806823      -3.51054685      -0.42865212        1 
H      -1.04320378      -2.47894364      -1.84930525        1 
H       1.45719133      -3.32252652      -0.46806108        1 
H       1.39038661      -2.30205273      -1.90474288        1 
H       0.85328768       3.17426326       2.30134869        1 
H       2.49733758       2.75320291       1.72319439        1 
H      -3.36220568       3.07829535      -0.43117849        1 
H      -2.38215655       3.87116107      -1.70376538        1 
C      -2.23918031      -1.59458165       0.84765894        6 
C       2.55466247      -1.16836155       0.69105393        6 
O       3.54246674      -1.20319214      -0.32083206        8 
H       2.64748784      -2.03221913       1.36488921        1 
H       2.64340249      -0.25982734       1.30114815        1 
C       4.81891755      -0.78023670       0.12114114        6 
H       5.49358500      -0.85971767      -0.73112511        1 
H       5.19357603      -1.41431361       0.93703539        1 
H       4.79057452       0.26395898       0.45803360        1 
O      -3.30666903      -1.46272862      -0.08056293        8 
H      -2.31777249      -0.84924280       1.64269167        1 
H      -2.23783149      -2.59867460       1.29574250        1 
C      -4.57926574      -1.50312849       0.53702552        6 
H      -5.32334809      -1.38340312      -0.25098246        1 
H      -4.69022263      -0.69095230       1.26742699        1 
H      -4.74770711      -2.46317864       1.04509166        1 
