43
Lattice="0.0 0.0 0.0 0.0 0.0 0.0 0.0 0.0 0.0" Properties=species:S:1:pos:R:3:Z:I:1 pbc="F F F"
C      -0.49308093      -0.01762195       0.82612202        6 
C       1.02860202      -0.33555319       0.68931587        6 
C      -1.42476700      -1.19015831       1.07726946        6 
C       1.38702571      -1.43861053      -0.32560967        6 
O      -2.64502219      -1.02552255       0.53354409        8 
O      -1.11855995      -2.14822056       1.74199060        8 
O       0.41175854      -2.35084649      -0.47199832        8 
O       2.38456237      -1.46132761      -1.00547929        8 
C       0.64100770      -3.38147180      -1.44786341        6 
C      -3.60511977      -2.05840571       0.81917843        6 
C      -0.69714471       1.16438849      -0.20339958        6 
C      -0.45574538       2.44385783       0.61949628        6 
C       1.02316339       2.21307008       1.03484516        6 
C       1.46249514       1.04858630       0.08763207        6 
O       0.50970189       1.12695180      -0.99560428        8 
H      -0.57838835       0.45272818       1.81362464        1 
H       1.49846673      -0.56511695       1.64527911        1 
H       1.54127767      -3.94694071      -1.20347150        1 
H      -3.74400583      -2.16561871       1.89579076        1 
H      -0.55861494       3.31836018      -0.02566159        1 
H      -1.14802588       2.54682205       1.45488865        1 
H       1.64089402       3.09298477       0.85740794        1 
H       1.14189482       1.94466315       2.08586736        1 
H      -0.23695831      -4.02200095      -1.39906079        1 
H       0.74911824      -2.94587314      -2.44258256        1 
H      -3.27381228      -3.01171399       0.40416891        1 
H      -4.52875758      -1.73298554       0.34513996        1 
C      -1.88363264       1.19005996      -1.14440564        6 
C       2.87435070       1.23681132      -0.43585828        6 
O       3.75203164       1.02344929       0.65842003        8 
H       2.96815988       2.26801828      -0.80919927        1 
H       3.08985616       0.54549708      -1.24945414        1 
C       5.11270684       0.99711820       0.27035087        6 
H       5.70157607       0.82908836       1.17253071        1 
H       5.41837161       1.95044781      -0.18408865        1 
H       5.30329378       0.18565707      -0.44391883        1 
O      -3.00771892       1.68966993      -0.44342835        8 
H      -2.08362883       0.18978145      -1.54384747        1 
H      -1.62856759       1.85379750      -1.98334646        1 
C      -4.21312141       1.54241113      -1.16295885        6 
H      -5.01150072       1.94918832      -0.54149328        1 
H      -4.42306104       0.48442817      -1.37342685        1 
H      -4.18602442       2.09193321      -2.11500036        1 
