43
Lattice="0.0 0.0 0.0 0.0 0.0 0.0 0.0 0.0 0.0" Properties=species:S:1:pos:R:3:Z:I:1 pbc="F F F"
C      -0.67551940      -0.04737269      -0.70205225        6 
C       0.89550730       0.09313365      -0.62633320        6 
C      -1.44038239       1.12912509      -0.13518504        6 
C       1.33922031       1.25747604       0.24586410        6 
O      -1.96425330       1.87458358      -1.12979341        8 
O      -1.59112812       1.38589089       1.03541117        8 
O       1.16996311       2.41247921      -0.44256503        8 
O       1.74084409       1.22151853       1.37894287        8 
C       1.40769337       3.62217120       0.29985052        6 
C      -2.71431290       3.02914336      -0.71769807        6 
C      -0.89255575      -1.42287792       0.02546257        6 
C      -0.59623151      -2.51655144      -1.02386488        6 
C       0.94057025      -2.35665304      -1.18421287        6 
C       1.27057041      -1.31217940      -0.07798035        6 
O       0.23955038      -1.53512073       0.89754551        8 
H      -0.97480700      -0.13144498      -1.74428449        1 
H       1.30643155       0.26241789      -1.62016244        1 
H       2.44459426       3.66880242       0.63582743        1 
H      -2.07880082       3.71738393      -0.15775744        1 
H      -0.85016367      -3.49270972      -0.60579711        1 
H      -1.16021007      -2.38372896      -1.94704504        1 
H       1.46667317      -3.29128528      -0.98537066        1 
H       1.24251019      -2.01156914      -2.17399047        1 
H       1.19361321       4.43367898      -0.39248096        1 
H       0.74542120       3.66422499       1.16600870        1 
H      -3.55782637       2.73185770      -0.09275936        1 
H      -3.06272986       3.49297755      -1.63787788        1 
C      -2.16765651      -1.57840676       0.82540646        6 
C       2.63537248      -1.46949445       0.56235689        6 
O       3.59383326      -1.01687048      -0.38403247        8 
H       2.80130101      -2.52930069       0.80408094        1 
H       2.68727433      -0.88278341       1.48234376        1 
C       4.91206761      -1.01349259       0.13117696        6 
H       5.56525834      -0.63720269      -0.65667058        1 
H       5.23545694      -2.02600023       0.41132793        1 
H       4.99169052      -0.36104421       1.01090447        1 
O      -3.25095794      -1.30106105      -0.05033429        8 
H      -2.16073618      -0.87985870       1.66792065        1 
H      -2.23309881      -2.60431284       1.21438549        1 
C      -4.50208939      -1.28357076       0.61167118        6 
H      -5.25881087      -1.04889625      -0.13742574        1 
H      -4.52222377      -0.51983590       1.40075378        1 
H      -4.73196120      -2.26050103       1.05923971        1 
