43
Lattice="0.0 0.0 0.0 0.0 0.0 0.0 0.0 0.0 0.0" Properties=species:S:1:pos:R:3:Z:I:1 pbc="F F F"
C      -0.73402627      -0.07543379      -0.76081195        6 
C       0.81084436       0.16455869      -0.72735606        6 
C      -1.58887883       1.15684686      -0.52628954        6 
C       1.29983111       1.33512194       0.10983187        6 
O      -1.11784619       2.16662258      -1.29956736        8 
O      -2.60463066       1.24344841       0.11430734        8 
O       0.41122540       1.71569654       1.04670645        8 
O       2.40650709       1.81103487       0.01774034        8 
C       0.81362493       2.78003269       1.92400521        6 
C      -1.84339892       3.40484012      -1.23116775        6 
C      -0.89615061      -1.35207462       0.13550413        6 
C      -0.57425850      -2.55804816      -0.77625498        6 
C       0.94515803      -2.35252274      -1.01552440        6 
C       1.26262474      -1.17907854      -0.04761540        6 
O       0.27127869      -1.31865210       0.98093066        8 
H      -1.00309443      -0.34777973      -1.78576362        1 
H       1.25286312       0.27755002      -1.71444268        1 
H       1.05357279       3.67635401       1.34957790        1 
H      -1.83206633       3.79435541      -0.21151165        1 
H      -0.77063061      -3.48303023      -0.23072762        1 
H      -1.17429966      -2.56771156      -1.68560343        1 
H       1.52422617      -3.23320620      -0.73560026        1 
H       1.20038473      -2.10722626      -2.04657749        1 
H      -0.04042082       2.95520621       2.57436591        1 
H       1.68645886       2.48307263       2.50722076        1 
H      -2.87737685       3.26277200      -1.54910358        1 
H      -1.32490689       4.08290421      -1.90559244        1 
C      -2.13919852      -1.50581381       0.98430873        6 
C       2.65223598      -1.22364363       0.55229214        6 
O       3.57207086      -1.18246971      -0.52250371        8 
H       2.76013248      -2.15465748       1.12802421        1 
H       2.81387269      -0.38304077       1.23643675        1 
C       4.89021813      -0.85782641      -0.11906774        6 
H       5.50732499      -0.85784658      -1.01769899        1 
H       5.28885189      -1.59925861       0.58806911        1 
H       4.92347337       0.13721159       0.34163139        1 
O      -3.22714237      -1.71533433       0.09927988        8 
H      -2.29852839      -0.61623424       1.59887730        1 
H      -2.00483514      -2.37424535       1.64573047        1 
C      -4.48642847      -1.49582542       0.70747989        6 
H      -5.24532068      -1.68275437      -0.05308831        1 
H      -4.57251677      -0.46106537       1.05974642        1 
H      -4.65107172      -2.18269435       1.55017344        1 
