43
Lattice="0.0 0.0 0.0 0.0 0.0 0.0 0.0 0.0 0.0" Properties=species:S:1:pos:R:3:Z:I:1 pbc="F F F"
C      -0.88582290       0.28700400      -0.75844057        6 
C       0.65215199       0.00448954      -0.80388572        6 
C      -1.40585570       1.49012752       0.01661094        6 
C       1.62770799       1.14128895      -0.55939944        6 
O      -0.94673716       1.56324565       1.26907801        8 
O      -2.24444802       2.23887202      -0.43401214        8 
O       2.51762732       1.18647310      -1.57902128        8 
O       1.64421862       1.92799478       0.35448893        8 
C       3.54997603       2.17887928      -1.46969120        6 
C      -1.38385053       2.69040683       2.04401098        6 
C      -1.36122286      -1.05138391      -0.09547550        6 
C      -0.99495160      -2.24267315      -1.03325624        6 
C       0.50488496      -2.47627268      -0.68570326        6 
C       0.77581976      -1.23358627       0.18342368        6 
O      -0.41896755      -1.18215269       0.97345035        8 
H      -1.29193692       0.39422936      -1.76215550        1 
H       0.88708197      -0.35059896      -1.80450424        1 
H       4.16172497       1.99353488      -0.58470473        1 
H      -2.46663489       2.66705026       2.18167892        1 
H      -1.60929128      -3.11135868      -0.79508600        1 
H      -1.16394462      -1.99935338      -2.08255536        1 
H       0.63846847      -3.37791823      -0.08404480        1 
H       1.15931624      -2.53917515      -1.55458493        1 
H       4.14725897       2.07687660      -2.37319346        1 
H       3.11776355       3.17867838      -1.40421787        1 
H      -1.10365199       3.62075558       1.54822749        1 
H      -0.87163060       2.59849633       2.99883651        1 
C      -2.77634107      -1.08081968       0.44293899        6 
C       1.96151359      -1.26027072       1.12128313        6 
O       3.14203786      -1.29441882       0.33892224        8 
H       1.89074030      -2.14728184       1.76681382        1 
H       1.93788973      -0.36598333       1.75688681        1 
C       4.32028178      -1.16321213       1.11167739        6 
H       5.16265516      -1.19479516       0.42028853        1 
H       4.41942088      -1.98425033       1.83522026        1 
H       4.33271682      -0.20931947       1.65645164        1 
O      -3.65096369      -1.05518687      -0.66880278        8 
H      -2.95907197      -0.22494910       1.10556352        1 
H      -2.91534063      -1.99855853       1.03356669        1 
C      -5.01021586      -0.90674778      -0.30318422        6 
H      -5.59053503      -0.90120122      -1.22576341        1 
H      -5.17587725       0.03818214       0.23113184        1 
H      -5.34859046      -1.73951897       0.32960030        1 
