43
Lattice="0.0 0.0 0.0 0.0 0.0 0.0 0.0 0.0 0.0" Properties=species:S:1:pos:R:3:Z:I:1 pbc="F F F"
C      -0.68713057       0.07310373       0.87780760        6 
C       0.88596203       0.05466751       0.72649068        6 
C      -1.39921121      -1.22147861       0.54029538        6 
C       1.45564395      -1.20591701       0.08872082        6 
O      -1.33029510      -1.50967647      -0.77980618        8 
O      -1.93286139      -1.93852294       1.34757158        8 
O       1.09361706      -2.27570049       0.83119366        8 
O       2.18402523      -1.29209352      -0.86673809        8 
C       1.56109741      -3.55792530       0.38018198        6 
C      -1.92709344      -2.75227495      -1.18579441        6 
C      -1.05022581       1.33427059       0.00924701        6 
C      -0.77291119       2.56824715       0.89637619        6 
C       0.77801532       2.55177000       0.94559469        6 
C       1.11921679       1.39026775      -0.03404413        6 
O       0.01372870       1.40691734      -0.95091847        8 
H      -0.95264215       0.25305655       1.91689946        1 
H       1.34117393       0.08887587       1.71741397        1 
H       2.64883178      -3.61305773       0.45061635        1 
H      -3.00310921      -2.73784605      -1.00292000        1 
H      -1.14601354       3.46426193       0.39653551        1 
H      -1.25171205       2.49843494       1.87305256        1 
H       1.20381490       3.48589189       0.57675549        1 
H       1.18093853       2.37618118       1.94353836        1 
H       1.09628901      -4.28345572       1.04397592        1 
H       1.26172664      -3.73163925      -0.65458763        1 
H      -1.48565441      -3.58463172      -0.63571138        1 
H      -1.71976037      -2.83980664      -2.25016515        1 
C      -2.37835218       1.32131862      -0.71946693        6 
C       2.42159166       1.57031433      -0.78817672        6 
O       3.47261713       1.39384371       0.14941888        8 
H       2.45013811       2.58341283      -1.21544452        1 
H       2.49113783       0.84034090      -1.59634759        1 
C       4.74311633       1.28091255      -0.46414236        6 
H       5.47419265       1.14568882       0.33360794        1 
H       4.99761327       2.18791704      -1.03077115        1 
H       4.77779414       0.41629821      -1.13907002        1 
O      -3.38782339       1.04375875       0.23544987        8 
H      -2.36033588       0.55731090      -1.50434247        1 
H      -2.54409463       2.30013236      -1.19210138        1 
C      -4.66705730       0.86873071      -0.34235028        6 
H      -5.36084771       0.65732137       0.47116275        1 
H      -4.67285064       0.02641470      -1.04824807        1 
H      -4.99626499       1.77372916      -0.87157967        1 
