43
Lattice="0.0 0.0 0.0 0.0 0.0 0.0 0.0 0.0 0.0" Properties=species:S:1:pos:R:3:Z:I:1 pbc="F F F"
C      -0.81035175       0.14087659       0.88976395        6 
C       0.77226621       0.18385973       0.93661292        6 
C      -1.34631685      -1.23044386       0.50598481        6 
C       1.43270225      -1.17798068       0.85621552        6 
O      -1.66684659      -1.36106556      -0.79345562        8 
O      -1.42612979      -2.13823224       1.29817357        8 
O       1.50762847      -1.65111569      -0.40821052        8 
O       1.76051116      -1.81875398       1.82160783        8 
C       2.00474747      -2.99446071      -0.54292127        6 
C      -2.09525578      -2.66942042      -1.20796451        6 
C      -1.08520612       1.34265033      -0.06157034        6 
C      -0.68042878       2.63846976       0.70073870        6 
C       0.86315735       2.63771741       0.53908387        6 
C       1.08205075       1.27171589      -0.15045671        6 
O      -0.04182440       1.20673814      -1.04110764        8 
H      -1.20963948       0.32330162       1.88520764        1 
H       1.07762143       0.55446216       1.91303398        1 
H       1.37278519      -3.68762174       0.01458481        1 
H      -2.97291500      -2.98524386      -0.64238818        1 
H      -1.13383494       3.50846734       0.22353670        1 
H      -1.01010056       2.62081061       1.74020974        1 
H       1.19220877       3.43791821      -0.12695043        1 
H       1.41001064       2.72915036       1.47763554        1 
H       1.97021169      -3.21052947      -1.60889823        1 
H       3.02778938      -3.06438559      -0.16966255        1 
H      -1.29397423      -3.39505920      -1.05946421        1 
H      -2.33036074      -2.57413230      -2.26601441        1 
C      -2.43798225       1.40354554      -0.74735128        6 
C       2.36694359       1.11724801      -0.93691849        6 
O       3.41549472       0.94313350       0.00226314        8 
H       2.53563019       2.01548498      -1.54807627        1 
H       2.28930907       0.24993249      -1.59982738        1 
C       4.66853070       0.69330767      -0.60465353        6 
H       5.39231765       0.55350404       0.19833842        1 
H       4.98595043       1.53751295      -1.23239081        1 
H       4.63720576      -0.21382404      -1.22398111        1 
O      -3.42572055       1.17333457       0.24487292        8 
H      -2.48939586       0.64656030      -1.53406331        1 
H      -2.57293696       2.39453235      -1.20413232        1 
C      -4.73772572       1.12982850      -0.28191699        6 
H      -5.41417296       0.94210772       0.55204944        1 
H      -4.84269609       0.32281244      -1.02017465        1 
H      -5.01074496       2.08155077      -0.75873502        1 
