43
Lattice="0.0 0.0 0.0 0.0 0.0 0.0 0.0 0.0 0.0" Properties=species:S:1:pos:R:3:Z:I:1 pbc="F F F"
C      -0.72200773       0.13092151       0.89375436        6 
C       0.82971335      -0.06597920       0.84295758        6 
C      -1.68342630      -1.04544601       0.88907157        6 
C       1.41899944      -1.33894243       0.25216145        6 
O      -1.24419624      -2.13920497       0.24232851        8 
O      -2.75942851      -0.99954711       1.43704297        8 
O       1.06014425      -1.56713366      -1.02183493        8 
O       2.24403533      -2.00619902       0.83331160        8 
C       1.60498037      -2.74736052      -1.62715888        6 
C      -2.13192174      -3.27210632       0.23980463        6 
C      -0.95554655       1.22886527      -0.22767224        6 
C      -0.69565341       2.58992648       0.44751990        6 
C       0.82895767       2.47380185       0.72741733        6 
C       1.20222239       1.17478784      -0.04413367        6 
O       0.19979786       1.10426748      -1.06743106        8 
H      -0.95609158       0.60117992       1.84833792        1 
H       1.26287152       0.01165815       1.83713800        1 
H       1.32831374      -3.63348095      -1.05279921        1 
H      -3.07934095      -3.01380774      -0.23557126        1 
H      -0.91203968       3.39227272      -0.26013690        1 
H      -1.30283291       2.74513345       1.33840705        1 
H       1.38363431       3.32226559       0.32479427        1 
H       1.07185445       2.39703920       1.78752430        1 
H       1.17253560      -2.78653380      -2.62486006        1 
H       2.69380995      -2.68901641      -1.68365328        1 
H      -2.32311910      -3.60915668       1.25945735        1 
H      -1.61484088      -4.04195275      -0.32880135        1 
C      -2.20871569       1.11981485      -1.07021167        6 
C       2.58816231       1.18016788      -0.65639439        6 
O       3.51300335       1.24779366       0.41331016        8 
H       2.68728512       2.05113195      -1.32053838        1 
H       2.74968096       0.27883533      -1.25964885        1 
C       4.85184210       1.02775236       0.01147444        6 
H       5.46899470       1.09497641       0.90731203        1 
H       5.18454877       1.78470392      -0.71277200        1 
H       4.97301808       0.03065661      -0.43292662        1 
O      -3.29518549       1.58528662      -0.29647947        8 
H      -2.36495137       0.07899434      -1.38739636        1 
H      -2.07895125       1.72892531      -1.97694540        1 
C      -4.55677886       1.24509311      -0.83702556        6 
H      -5.31193461       1.65814876      -0.16858294        1 
H      -4.68322079       0.15549696      -0.88799770        1 
H      -4.69297173       1.67049280      -1.84164310        1 
