43
Lattice="0.0 0.0 0.0 0.0 0.0 0.0 0.0 0.0 0.0" Properties=species:S:1:pos:R:3:Z:I:1 pbc="F F F"
C      -0.78945398       0.05514391       0.87469900        6 
C       0.77279014      -0.12503177       0.77767689        6 
C      -1.61240160      -1.22267254       0.77314405        6 
C       1.23327601      -1.43578688       0.14432847        6 
O      -2.08532360      -1.48298861      -0.45678079        8 
O      -1.82820375      -1.91965292       1.73469613        8 
O       2.56842997      -1.44553883      -0.05034650        8 
O       0.54843035      -2.40754117      -0.05504177        8 
C       3.12455121      -2.68362896      -0.53060988        6 
C      -2.76562772      -2.73974509      -0.60771209        6 
C      -1.03628144       1.25780944      -0.10193932        6 
C      -0.71957959       2.53475919       0.70596375        6 
C       0.81394371       2.40105109       0.88003337        6 
C       1.13431902       1.17527165      -0.02545591        6 
O       0.08394042       1.19796506      -1.00507152        8 
H      -1.01348805       0.38699019       1.88794182        1 
H       1.23503335      -0.10537854       1.76580885        1 
H       2.72889935      -2.92333682      -1.51897693        1 
H      -3.63023454      -2.79018798       0.05579247        1 
H      -0.97821550       3.41264391       0.11026765        1 
H      -1.27277322       2.58612839       1.64339875        1 
H       1.34419082       3.28241557       0.51770684        1 
H       1.12525615       2.23453458       1.91160351        1 
H       4.19861163      -2.51742948      -0.57758723        1 
H       2.89038596      -3.49821909       0.15586440        1 
H      -2.08219864      -3.55881471      -0.38043183        1 
H      -3.07720894      -2.77809182      -1.64990189        1 
C      -2.32465720       1.30761019      -0.89593112        6 
C       2.46926426       1.29180368      -0.73248661        6 
O       3.47858622       1.36857632       0.25703038        8 
H       2.44974421       2.21013478      -1.33796379        1 
H       2.63903764       0.44470760      -1.40282507        1 
C       4.78220584       1.25772613      -0.27544379        6 
H       5.47887987       1.32705977       0.56033750        1 
H       4.99731791       2.06578708      -0.98926703        1 
H       4.92170817       0.29283618      -0.78207047        1 
O      -3.39468903       1.24769096       0.03339037        8 
H      -2.36602698       0.46935453      -1.59546968        1 
H      -2.35793648       2.24766689      -1.46580011        1 
C      -4.65310793       1.06287844      -0.58443454        6 
H      -5.39826209       1.01739864       0.21007416        1 
H      -4.67791948       0.12587769      -1.15714487        1 
H      -4.89749566       1.89626218      -1.25819653        1 
