43
Lattice="0.0 0.0 0.0 0.0 0.0 0.0 0.0 0.0 0.0" Properties=species:S:1:pos:R:3:Z:I:1 pbc="F F F"
C      -0.95580292       0.25017159      -0.77101434        6 
C       0.56748433      -0.05512869      -0.87032524        6 
C      -1.34501177       1.46428471       0.06121683        6 
C       1.42472779       1.19631535      -0.97046857        6 
O      -0.36562123       1.88577719       0.88216428        8 
O      -2.46251264       1.92377299       0.08082850        8 
O       2.64820192       1.07359047      -0.43137806        8 
O       1.05351868       2.19003754      -1.54877845        8 
C       3.51467795       2.21339302      -0.58373541        6 
C      -0.69091183       2.98965305       1.74261384        6 
C      -1.41301556      -1.03975439      -0.00320860        6 
C      -1.10102608      -2.28750757      -0.87975875        6 
C       0.40695619      -2.51744215      -0.58858692        6 
C       0.74832506      -1.22187721       0.17738545        6 
O      -0.41126741      -1.09823793       1.02675884        8 
H      -1.44740895       0.34608853      -1.73626677        1 
H       0.73775787      -0.49911024      -1.85768829        1 
H       3.07384014       3.09223991      -0.11095541        1 
H      -1.51059919       2.72308012       2.41166750        1 
H      -1.71359288      -3.13234506      -0.56398087        1 
H      -1.31718412      -2.10239958      -1.93259225        1 
H       0.55950746      -3.37553613       0.06873015        1 
H       1.01780699      -2.65709369      -1.48028146        1 
H       4.44460131       1.93655501      -0.09169652        1 
H       3.68716631       2.42308210      -1.64016765        1 
H      -0.97631575       3.86000428       1.15013974        1 
H       0.21478101       3.19177300       2.31036355        1 
C      -2.79633926      -1.04893882       0.61235014        6 
C       1.98171293      -1.29108464       1.05011308        6 
O       3.06177346      -1.74039966       0.25140484        8 
H       1.78169280      -2.00293519       1.86429081        1 
H       2.19646468      -0.31212661       1.48958818        1 
C       4.31276654      -1.60519125       0.89171925        6 
H       5.07151122      -1.97025245       0.19876462        1 
H       4.35967862      -2.19662040       1.81746684        1 
H       4.52158213      -0.55422965       1.13466175        1 
O      -3.72837452      -1.07742083      -0.45247886        8 
H      -2.95513482      -0.16960357       1.24508439        1 
H      -2.89305469      -1.94602224       1.24202005        1 
C      -5.05086015      -0.78206965      -0.04134905        6 
H      -5.68038017      -0.83542398      -0.92975253        1 
H      -5.11237682       0.22679851       0.38549719        1 
H      -5.41382618      -1.51037395       0.69822483        1 
