43
Lattice="0.0 0.0 0.0 0.0 0.0 0.0 0.0 0.0 0.0" Properties=species:S:1:pos:R:3:Z:I:1 pbc="F F F"
C      -0.74949885       0.04224490       0.86854767        6 
C       0.80158731      -0.16156768       0.75736253        6 
C      -1.53239046      -1.26443267       0.89446954        6 
C       1.19150131      -1.39305312      -0.05589480        6 
O      -2.35859091      -1.46038136      -0.14228191        8 
O      -1.40923251      -2.04388236       1.80936831        8 
O       2.53129905      -1.48999239      -0.18481505        8 
O       0.44206414      -2.25012993      -0.45293182        8 
C       3.01327674      -2.66943644      -0.85528904        6 
C      -3.01213598      -2.74085264      -0.18287643        6 
C      -1.00267320       1.22205131      -0.13764382        6 
C      -0.73764985       2.51088241       0.66871874        6 
C       0.78226371       2.37030093       0.94062038        6 
C       1.16632709       1.17340867       0.01964447        6 
O       0.15271304       1.19043374      -1.00142248        8 
H      -0.93870263       0.42576788       1.87310968        1 
H       1.28823150      -0.24133944       1.72886131        1 
H       2.63300334      -2.71110536      -1.87725945        1 
H      -3.63999074      -2.88103842       0.69823765        1 
H      -0.95355337       3.37973746       0.04349706        1 
H      -1.34863055       2.57652783       1.56833856        1 
H       1.33642851       3.26319821       0.65015379        1 
H       1.01854306       2.16411624       1.98514164        1 
H       4.09741261      -2.58008869      -0.85207276        1 
H       2.69934872      -3.56627517      -0.31948494        1 
H      -2.26560038      -3.53455303      -0.23083538        1 
H      -3.61760932      -2.72812140      -1.08718043        1 
C      -2.25929002       1.24510816      -0.97893443        6 
C       2.52900601       1.32739201      -0.62449619        6 
O       3.49317308       1.33297463       0.41189316        8 
H       2.54189781       2.28073279      -1.17335450        1 
H       2.72371734       0.52067212      -1.33663480        1 
C       4.82068198       1.26745011      -0.06767500        6 
H       5.47764455       1.26970063       0.80239266        1 
H       5.06397287       2.13131431      -0.70272257        1 
H       4.98817633       0.34668448      -0.64315916        1 
O      -3.35843366       1.36508038      -0.09053914        8 
H      -2.33670479       0.33455657      -1.57758090        1 
H      -2.21222685       2.11157780      -1.65505317        1 
C      -4.60440892       1.15811396      -0.72452743        6 
H      -5.37620968       1.26798948       0.03783878        1 
H      -4.66478022       0.15039257      -1.15705999        1 
H      -4.77981786       1.89658979      -1.51987975        1 
