43
Lattice="0.0 0.0 0.0 0.0 0.0 0.0 0.0 0.0 0.0" Properties=species:S:1:pos:R:3:Z:I:1 pbc="F F F"
C      -0.70048804      -0.03214628       0.83757856        6 
C       0.83857044      -0.22515366       0.72095308        6 
C      -1.45671135      -1.35060956       0.89986645        6 
C       1.19278889      -1.34354067      -0.25429559        6 
O      -2.63418037      -1.35326226       0.25684160        8 
O      -1.04021668      -2.29290637       1.53053610        8 
O       2.52372085      -1.57134715      -0.27029148        8 
O       0.40926387      -2.00603300      -0.88706279        8 
C       2.96402186      -2.64834166      -1.11796642        6 
C      -3.37625106      -2.58542961       0.31982442        6 
C      -0.97061911       1.16517103      -0.15087046        6 
C      -0.75568886       2.44015184       0.69085871        6 
C       0.75691824       2.30820300       1.01829078        6 
C       1.19522595       1.15490464       0.06694296        6 
O       0.21054109       1.19216299      -0.98178839        8 
H      -0.88760938       0.35284130       1.84617673        1 
H       1.34362181      -0.39404898       1.66923465        1 
H       2.70147937      -2.44922881      -2.15843248        1 
H      -3.63582273      -2.82340090       1.35233828        1 
H      -0.95649125       3.31910609       0.07516256        1 
H      -1.40211880       2.48096511       1.56688581        1 
H       1.30909517       3.21961080       0.78756619        1 
H       0.95360854       2.06246779       2.06264785        1 
H       4.04420124      -2.68973094      -0.99535996        1 
H       2.50506097      -3.58777126      -0.80697729        1 
H      -2.78865497      -3.40106448      -0.10299940        1 
H      -4.27441048      -2.41134884      -0.26927071        1 
C      -2.19418443       1.16822743      -1.03943958        6 
C       2.57796512       1.34195398      -0.52273538        6 
O       3.50368784       1.29157100       0.54717155        8 
H       2.61474669       2.31934885      -1.02607739        1 
H       2.79800314       0.56878101      -1.26547723        1 
C       4.84749263       1.22555201       0.11358973        6 
H       5.47178288       1.18598547       1.00647752        1 
H       5.12465577       2.10922458      -0.47870815        1 
H       5.02304009       0.32406692      -0.48915209        1 
O      -3.31870788       1.46779276      -0.23007228        8 
H      -2.31053520       0.19961131      -1.53433946        1 
H      -2.05693065       1.94249559      -1.80837666        1 
C      -4.54620234       1.26239513      -0.89714139        6 
H      -5.34106283       1.52141914      -0.19692633        1 
H      -4.66117769       0.21345644      -1.20186731        1 
H      -4.63348362       1.90042488      -1.78854469        1 
