43
Lattice="0.0 0.0 0.0 0.0 0.0 0.0 0.0 0.0 0.0" Properties=species:S:1:pos:R:3:Z:I:1 pbc="F F F"
C      -0.88716388       0.05644368      -0.68227672        6 
C       0.67746710       0.19186099      -0.66258052        6 
C      -1.66368723       1.28225921      -0.21835850        6 
C       1.21372397       1.34371670       0.17570646        6 
O      -1.51964133       2.25788053      -1.14680289        8 
O      -2.37394808       1.38997983       0.74691065        8 
O       2.55375007       1.44161137       0.04201750        8 
O       0.56611669       2.13017404       0.82018817        8 
C       3.18034185       2.52325622       0.75455072        6 
C      -2.12152843       3.52080373      -0.81782658        6 
C      -1.10823206      -1.29729414       0.06978773        6 
C      -0.82731773      -2.42163177      -0.95327865        6 
C       0.70784628      -2.29838645      -1.12791318        6 
C       1.05863615      -1.21698486      -0.06990640        6 
O       0.04412755      -1.38608839       0.93039834        8 
H      -1.19696756      -0.06457520      -1.72160911        1 
H       1.09460469       0.31167412      -1.66197461        1 
H       3.01120231       2.42363223       1.82810925        1 
H      -1.67598664       3.91733115       0.09594305        1 
H      -1.09972595      -3.38320842      -0.51400483        1 
H      -1.39546752      -2.29939202      -1.87506497        1 
H       1.21903150      -3.23130388      -0.88701771        1 
H       1.01966690      -2.00372291      -2.12992529        1 
H       4.24043676       2.44444784       0.52363480        1 
H       2.78424936       3.48256160       0.41809771        1 
H      -3.19768531       3.40773423      -0.67863882        1 
H      -1.91145221       4.17290429      -1.66322640        1 
C      -2.37355271      -1.48190961       0.87977599        6 
C       2.41851107      -1.41087146       0.56965048        6 
O       3.38936543      -1.40162902      -0.45934861        8 
H       2.41228184      -2.37906480       1.09134016        1 
H       2.62335063      -0.63009357       1.31031042        1 
C       4.71359592      -1.37135898       0.03177341        6 
H       5.37751237      -1.35815545      -0.83286805        1 
H       4.93821237      -2.25726078       0.64290848        1 
H       4.89127831      -0.47109887       0.63617172        1 
O      -3.46097052      -1.38773661      -0.02853856        8 
H      -2.44118580      -0.71592547       1.65439833        1 
H      -2.35011414      -2.47409350       1.35390375        1 
C      -4.70618594      -1.19465584       0.61738035        6 
H      -5.46534472      -1.13345160      -0.16330022        1 
H      -4.70512928      -0.26388726       1.19756470        1 
H      -4.94775188      -2.03528189       1.28339579        1 
