43
Lattice="0.0 0.0 0.0 0.0 0.0 0.0 0.0 0.0 0.0" Properties=species:S:1:pos:R:3:Z:I:1 pbc="F F F"
C      -0.65394397      -0.03773251       0.84787555        6 
C       0.91003648      -0.15329161       0.86649355        6 
C      -1.44570112      -1.28698996       0.50680440        6 
C       1.49204478      -1.45679389       0.33253845        6 
O      -2.71007214      -1.15511682       0.96473260        8 
O      -1.06243509      -2.27372072      -0.07093291        8 
O       1.44644924      -1.55248803      -1.00582851        8 
O       2.01001402      -2.28153538       1.04698992        8 
C       1.83679884      -2.81843652      -1.56027967        6 
C      -3.60437860      -2.24410784       0.67922571        6 
C      -0.87471480       1.17938881      -0.13929768        6 
C      -0.61540090       2.46489217       0.67508902        6 
C       0.91968485       2.36850066       0.88910512        6 
C       1.28539617       1.11887576       0.03885740        6 
O       0.27900451       1.12293750      -0.98574330        8 
H      -1.01178536       0.25690350       1.83405675        1 
H       1.28248869      -0.08062733       1.88540214        1 
H       1.13684398      -3.58917584      -1.23402397        1 
H      -3.24668698      -3.16560170       1.14108445        1 
H      -0.88273406       3.33541001       0.07343370        1 
H      -1.19557549       2.50155860       1.59607013        1 
H       1.43699845       3.24784869       0.50242950        1 
H       1.20817619       2.24805575       1.93368865        1 
H       1.78520195      -2.69019468      -2.63965721        1 
H       2.84821381      -3.08595824      -1.25015328        1 
H      -3.69173606      -2.39584412      -0.39830528        1 
H      -4.56187256      -1.94875394       1.10263984        1 
C      -2.11902060       1.18974669      -1.00491551        6 
C       2.66605358       1.16263334      -0.58458879        6 
O       3.60199185       1.05445835       0.47488202        8 
H       2.78931371       2.11485842      -1.12133809        1 
H       2.78677768       0.34460566      -1.30113414        1 
C       4.94055238       0.96101400       0.02655923        6 
H       5.56964323       0.86655189       0.91163735        1 
H       5.23968959       1.85776074      -0.53421849        1 
H       5.08467499       0.07929880      -0.61272202        1 
O      -3.21513301       1.59667209      -0.20986021        8 
H      -2.29542578       0.19736334      -1.44358420        1 
H      -1.95518752       1.89360631      -1.83374181        1 
C      -4.45810057       1.44471896      -0.86398570        6 
H      -5.22869922       1.79085390      -0.17490639        1 
H      -4.64860491       0.39218362      -1.11727427        1 
H      -4.50581949       2.04230068      -1.78546314        1 
