43
Lattice="0.0 0.0 0.0 0.0 0.0 0.0 0.0 0.0 0.0" Properties=species:S:1:pos:R:3:Z:I:1 pbc="F F F"
C      -0.75743619      -0.03729578      -0.78598132        6 
C       0.81545685       0.08111433      -0.81685758        6 
C      -1.46845429       1.16189003      -0.19450925        6 
C       1.27575492       1.46769239      -0.38630198        6 
O      -2.38477222       1.64639590      -1.05030349        8 
O      -1.26215056       1.62829969       0.90152669        8 
O       1.96800689       1.51771517       0.75709047        8 
O       0.99353185       2.44738408      -1.03712037        8 
C       2.30220409       2.83662299       1.22933867        6 
C      -3.13394193       2.78590988      -0.59420095        6 
C      -0.93113940      -1.33388811       0.09248485        6 
C      -0.62345412      -2.53820592      -0.82468349        6 
C       0.91713936      -2.41441879      -0.96857720        6 
C       1.22953384      -1.20300350      -0.04137625        6 
O       0.20830026      -1.30530888       0.96207004        8 
H      -1.15714742      -0.20081678      -1.78276866        1 
H       1.14943812       0.01196158      -1.85245682        1 
H       1.39026761       3.40783658       1.40527076        1 
H      -2.46213109       3.61240808      -0.35935326        1 
H      -0.90278085      -3.46350810      -0.31679349        1 
H      -1.16714577      -2.49383689      -1.76797513        1 
H       1.42491839      -3.30460805      -0.59399860        1 
H       1.25203706      -2.24650361      -1.99258181        1 
H       2.84294975       2.68013089       2.16032445        1 
H       2.92648998       3.35665761       0.50168508        1 
H      -3.71573884       2.52857032       0.29291069        1 
H      -3.79258683       3.04779368      -1.41929249        1 
C      -2.18596135      -1.43949793       0.93334872        6 
C       2.59938589      -1.25119629       0.60489048        6 
O       3.54981236      -0.95092072      -0.40535676        8 
H       2.77129154      -2.25932943       1.00937038        1 
H       2.65511311      -0.53057985       1.42338414        1 
C       4.86703912      -0.83460186       0.09526891        6 
H       5.51585226      -0.60906802      -0.75148273        1 
H       5.20301396      -1.76997961       0.56463312        1 
H       4.94120253      -0.02347742       0.83244514        1 
O      -3.29896377      -1.37189152       0.05833303        8 
H      -2.21092020      -0.62514239       1.66767990        1 
H      -2.17241107      -2.39423887       1.47851721        1 
C      -4.53887612      -1.38892513       0.73892163        6 
H      -5.32106464      -1.31135045      -0.01640939        1 
H      -4.62333082      -0.54267199       1.43470771        1 
H      -4.67464570      -2.32247328       1.30288605        1 
