43
Lattice="0.0 0.0 0.0 0.0 0.0 0.0 0.0 0.0 0.0" Properties=species:S:1:pos:R:3:Z:I:1 pbc="F F F"
C      -0.65986982       0.10259672      -0.68326435        6 
C       0.90449247       0.09319491      -0.71661556        6 
C      -1.25281472       1.17655561       0.20672308        6 
C       1.55260264       1.39774467      -0.27721309        6 
O      -2.47019873       1.54552825      -0.24525452        8 
O      -0.75135958       1.63180595       1.20551177        8 
O       0.97778587       2.41809381      -0.96043557        8 
O       2.49574336       1.54794190       0.45437679        8 
C       1.42501304       3.73926720      -0.61245906        6 
C      -3.17378610       2.51199714       0.55366006        6 
C      -0.92894304      -1.31264446      -0.05400960        6 
C      -0.53267630      -2.39098282      -1.09510024        6 
C       1.01416818      -2.38783082      -0.96877151        6 
C       1.23986087      -1.23446845       0.03896116        6 
O       0.11441292      -1.39848432       0.92404480        8 
H      -1.10454332       0.18728639      -1.67183839        1 
H       1.22300495      -0.00549458      -1.75757549        1 
H       2.50062104       3.83546986      -0.76582784        1 
H      -2.58776431       3.42665429       0.65350222        1 
H      -0.96044098      -3.35440628      -0.81347016        1 
H      -0.89721953      -2.14759466      -2.09311424        1 
H       1.37918788      -3.31971971      -0.53350526        1 
H       1.53902064      -2.22937348      -1.91063866        1 
H       0.88155452       4.41285433      -1.27187972        1 
H       1.18509160       3.94699125       0.43171209        1 
H      -3.37886950       2.11060147       1.54794996        1 
H      -4.10244933       2.70667732       0.02157537        1 
C      -2.26882090      -1.53671103       0.61670802        6 
C       2.52831595      -1.32183419       0.82699911        6 
O       3.59343697      -1.23352107      -0.10622178        8 
H       2.55472453      -2.28650062       1.35482394        1 
H       2.57924685      -0.51494089       1.56134894        1 
C       4.83317947      -0.91443894       0.49944600        6 
H       5.57656021      -0.87112157      -0.29744459        1 
H       5.13486220      -1.68258101       1.22601939        1 
H       4.78113565       0.05872715       1.00164105        1 
O      -3.25762749      -1.58845823      -0.39398807        8 
H      -2.48370629      -0.73577358       1.33685808        1 
H      -2.22631043      -2.48359684       1.17429805        1 
C      -4.57240557      -1.65005650       0.12189806        6 
H      -5.25049750      -1.69438382      -0.73045263        1 
H      -4.80656439      -0.75941423       0.72174423        1 
H      -4.71897799      -2.54372076       0.74489411        1 
