43
Lattice="0.0 0.0 0.0 0.0 0.0 0.0 0.0 0.0 0.0" Properties=species:S:1:pos:R:3:Z:I:1 pbc="F F F"
C      -0.74651744      -0.09000050      -0.74632443        6 
C       0.80729336       0.15439136      -0.73279768        6 
C      -1.60922478       1.10942423      -0.38760803        6 
C       1.34601921       1.36520311       0.00987815        6 
O      -1.46695522       2.04216528      -1.36238481        8 
O      -2.33816870       1.25935303       0.55820423        8 
O       0.48822750       1.84843140       0.92116095        8 
O       2.46419486       1.79789799      -0.14327921        8 
C       0.93684731       2.95750936       1.71747600        6 
C      -2.18859446       3.26953234      -1.16659886        6 
C      -0.87600168      -1.39084528       0.11695583        6 
C      -0.51078895      -2.57178750      -0.81258246        6 
C       1.01466744      -2.35742517      -0.98976063        6 
C       1.27912541      -1.17080808      -0.02478663        6 
O       0.27335384      -1.33230991       0.98390308        8 
H      -1.03562380      -0.31723270      -1.77385730        1 
H       1.21966519       0.21613264      -1.73779485        1 
H       1.22493787       3.79393480       1.07887713        1 
H      -1.86308673       3.75821313      -0.24652677        1 
H      -0.72428451      -3.51206315      -0.30057917        1 
H      -1.07614909      -2.55950678      -1.74408322        1 
H       1.58601824      -3.22905472      -0.66799066        1 
H       1.31697891      -2.12688238      -2.01112247        1 
H       0.08765271       3.22028912       2.34410326        1 
H       1.79005984       2.66283138       2.33038539        1 
H      -3.26130740       3.07867994      -1.11057414        1 
H      -1.95430000       3.88651822      -2.03149553        1 
C      -2.12918025      -1.59566792       0.94033111        6 
C       2.65740539      -1.17840033       0.60314026        6 
O       3.59870371      -1.16418389      -0.45325053        8 
H       2.76143172      -2.08919099       1.21088201        1 
H       2.79716616      -0.31566090       1.26454696        1 
C       4.89890308      -0.78190226      -0.04225975        6 
H       5.53414482      -0.81287692      -0.92761865        1 
H       5.30247802      -1.47330853       0.71124967        1 
H       4.89531572       0.23710144       0.36341090        1 
O      -3.21591075      -1.66668396       0.02896855        8 
H      -2.26094263      -0.76943343       1.64143646        1 
H      -2.03369412      -2.53562389       1.50355314        1 
C      -4.47539982      -1.54143982       0.66317661        6 
H      -5.23562323      -1.61956774      -0.11483313        1 
H      -4.56579931      -0.56962619       1.16430181        1 
H      -4.63517369      -2.34225878       1.39903410        1 
