43
Lattice="0.0 0.0 0.0 0.0 0.0 0.0 0.0 0.0 0.0" Properties=species:S:1:pos:R:3:Z:I:1 pbc="F F F"
C      -0.69975757      -0.01744727       0.82677561        6 
C       0.87156128      -0.05250168       0.88684040        6 
C      -1.39192297      -1.25990195       0.30093176        6 
C       1.48657686      -1.39560855       0.51394738        6 
O      -2.64799577      -1.32492368       0.79327178        8 
O      -0.93891151      -2.09056967      -0.44710997        8 
O       1.81576398      -1.51617491      -0.77950821        8 
O       1.68460929      -2.25583218       1.33936768        8 
C       2.23523110      -2.82518169      -1.19985376        6 
C      -3.44594000      -2.43402173       0.34438620        6 
C      -0.94054161       1.23951624      -0.09704656        6 
C      -0.66785027       2.49885482       0.75684645        6 
C       0.87892809       2.45331827       0.87131056        6 
C       1.22500365       1.19960460       0.02224825        6 
O       0.18877418       1.20306307      -0.97525178        8 
H      -1.12098810       0.17509502       1.81148482        1 
H       1.19132206       0.09898091       1.91599597        1 
H       1.40742729      -3.52560613      -1.08188200        1 
H      -2.96570767      -3.37948918       0.60008199        1 
H      -1.00311549       3.38509814       0.21543321        1 
H      -1.19058448       2.47413441       1.71204698        1 
H       1.33788293       3.33832710       0.42749542        1 
H       1.23965893       2.36725336       1.89655466        1 
H       2.49957211      -2.72121929      -2.25029483        1 
H       3.09122784      -3.16451208      -0.61521321        1 
H      -3.59119089      -2.38829345      -0.73674868        1 
H      -4.39741275      -2.33339693       0.86186208        1 
C      -2.21121167       1.28144799      -0.92208079        6 
C       2.58433360       1.23665249      -0.64868590        6 
O       3.55117352       0.93698244       0.34506969        8 
H       2.75869085       2.23749747      -1.06949944        1 
H       2.61542397       0.50422549      -1.45890030        1 
C       4.85317115       0.77123379      -0.18225169        6 
H       5.51331082       0.54448270       0.65512227        1 
H       5.20526436       1.68570684      -0.67989700        1 
H       4.88616624      -0.05795864      -0.90216396        1 
O      -3.29061111       1.57029678      -0.05494945        8 
H      -2.36762709       0.32726611      -1.44479984        1 
H      -2.10380607       2.06387689      -1.68714637        1 
C      -4.55200922       1.42817874      -0.67587174        6 
H      -5.30728339       1.67606333       0.07008961        1 
H      -4.71171905       0.39682530      -1.02021994        1 
H      -4.65892701       2.10699740      -1.53387722        1 
