43
Lattice="0.0 0.0 0.0 0.0 0.0 0.0 0.0 0.0 0.0" Properties=species:S:1:pos:R:3:Z:I:1 pbc="F F F"
C      -0.75171465       0.14568305       0.90843044        6 
C       0.82497236       0.10018851       0.91479698        6 
C      -1.40529238      -1.20411386       0.65169233        6 
C       1.50658538      -1.22035013       0.61722257        6 
O      -1.85610965      -1.38876013      -0.59843910        8 
O      -1.52310203      -2.03059838       1.52617905        8 
O       0.95473918      -1.86756157      -0.42919596        8 
O       2.47829094      -1.62469220       1.20668997        8 
C       1.53665266      -3.13710795      -0.77192688        6 
C      -2.44310690      -2.67047437      -0.87080505        6 
C      -1.00534858       1.32442761      -0.08146744        6 
C      -0.58955216       2.63267294       0.64824546        6 
C       0.95738668       2.58068210       0.54614396        6 
C       1.15931998       1.21645998      -0.14935460        6 
O       0.04642888       1.15477862      -1.04900971        8 
H      -1.09894523       0.40884800       1.90624057        1 
H       1.21080172       0.39381015       1.88788419        1 
H       1.42395288      -3.83870614       0.05606102        1 
H      -3.30941655      -2.84196199      -0.22992334        1 
H      -0.99625328       3.49518873       0.11811421        1 
H      -0.95866379       2.66811836       1.67346378        1 
H       1.34353164       3.37723624      -0.09264944        1 
H       1.47291038       2.63903363       1.50395204        1 
H       0.98617807      -3.48089471      -1.64508237        1 
H       2.59614971      -3.02406158      -1.00663203        1 
H      -1.71337635      -3.46465379      -0.70501091        1 
H      -2.73962569      -2.63688886      -1.91733771        1 
C      -2.34755957       1.39778825      -0.78474171        6 
C       2.45604093       1.06146945      -0.91530891        6 
O       3.51266940       1.26321502       0.00321460        8 
H       2.48662146       1.80408323      -1.72581287        1 
H       2.51287190       0.06491829      -1.37220916        1 
C       4.76712497       0.81221180      -0.47138141        6 
H       5.49614528       1.01451079       0.31301559        1 
H       5.06624719       1.34252612      -1.38647458        1 
H       4.74693168      -0.26737123      -0.67022252        1 
O      -3.35146570       1.26774020       0.20975123        8 
H      -2.42594349       0.59892308      -1.52567121        1 
H      -2.43596465       2.36572026      -1.29871459        1 
C      -4.65763611       1.21466264      -0.32956927        6 
H      -5.34768436       1.10070319       0.50663384        1 
H      -4.77078818       0.35963717      -1.01037496        1 
H      -4.90493757       2.13558570      -0.87607614        1 
