43
Lattice="0.0 0.0 0.0 0.0 0.0 0.0 0.0 0.0 0.0" Properties=species:S:1:pos:R:3:Z:I:1 pbc="F F F"
C      -0.78228489      -0.02140702       0.84981320        6 
C       0.78864579       0.01693601       0.84826946        6 
C      -1.46391908      -1.26938552       0.30889941        6 
C       1.60492803      -1.24833193       0.62106153        6 
O      -1.30761135      -1.42085657      -1.02165566        8 
O      -2.12981363      -2.01341203       0.98666273        8 
O       0.86750224      -2.34880432       0.40412768        8 
O       2.80924829      -1.27834517       0.71520749        8 
C       1.58033445      -3.59275879       0.28189006        6 
C      -1.90072929      -2.59479099      -1.59337304        6 
C      -1.08213365       1.26573806       0.00871684        6 
C      -0.67536150       2.50042339       0.85959733        6 
C       0.86430010       2.52258628       0.67210642        6 
C       1.08251615       1.22241954      -0.13391508        6 
O      -0.06171557       1.21398026      -0.99916823        8 
H      -1.16329443       0.07951569       1.86329652        1 
H       1.12470914       0.31686332       1.84344599        1 
H       2.20151446      -3.76426010       1.16153229        1 
H      -2.97911277      -2.60694208      -1.42477446        1 
H      -1.14500272       3.40069391       0.46024533        1 
H      -0.98911597       2.39794387       1.89879751        1 
H       1.18242667       3.37638963       0.07177388        1 
H       1.43186265       2.53776685       1.60124655        1 
H       0.81067063      -4.35681911       0.19943110        1 
H       2.21046416      -3.58214266      -0.60879532        1 
H      -1.46342751      -3.49344599      -1.15431831        1 
H      -1.67947897      -2.54410824      -2.65759440        1 
C      -2.44958530       1.37252289      -0.63685669        6 
C       2.34964183       1.19011460      -0.96371987        6 
O       3.42508559       1.57579837      -0.13007833        8 
H       2.23281918       1.89546147      -1.79952689        1 
H       2.51479531       0.19224563      -1.38599493        1 
C       4.69053927       1.18857277      -0.63188063        6 
H       5.43771007       1.55594613       0.07198612        1 
H       4.88325308       1.62985869      -1.62028732        1 
H       4.76559128       0.09654481      -0.69863328        1 
O      -3.40604599       1.33912391       0.40860988        8 
H      -2.60851284       0.54932611      -1.34081936        1 
H      -2.51004108       2.31810070      -1.19526661        1 
C      -4.74060201       1.29803334      -0.05841094        6 
H      -5.38607104       1.25548160       0.81881738        1 
H      -4.91734773       0.40767013      -0.67756227        1 
H      -4.98873645       2.19333174      -0.64569156        1 
