43
Lattice="0.0 0.0 0.0 0.0 0.0 0.0 0.0 0.0 0.0" Properties=species:S:1:pos:R:3:Z:I:1 pbc="F F F"
C      -0.62204306      -0.02107814       0.85336244        6 
C       0.92507549      -0.19709008       0.82606928        6 
C      -1.43105403      -1.30177524       0.74052996        6 
C       1.48001531      -1.42892663       0.12465886        6 
O      -2.75277930      -1.03548006       0.75526956        8 
O      -0.98888705      -2.42392615       0.71481693        8 
O       0.93083469      -1.63821805      -1.08518573        8 
O       2.40358263      -2.07561958       0.55787727        8 
C       1.36489432      -2.82050129      -1.77485712        6 
C      -3.63096206      -2.17472368       0.72408823        6 
C      -0.84131510       1.18023670      -0.15463138        6 
C      -0.56585931       2.46982949       0.65030869        6 
C       0.96392107       2.33995615       0.89463461        6 
C       1.32029092       1.09554885       0.03499821        6 
O       0.32168007       1.11990884      -0.99474077        8 
H      -0.90492283       0.34564141       1.84467298        1 
H       1.35893117      -0.20433226       1.82280856        1 
H       1.09338376      -3.70705420      -1.19914474        1 
H      -3.44757675      -2.82335421       1.58181841        1 
H      -0.80011171       3.33866492       0.03293768        1 
H      -1.16096107       2.53312914       1.56054095        1 
H       1.50777050       3.21307213       0.53166254        1 
H       1.23004117       2.19908077       1.94252709        1 
H       0.84136450      -2.80894251      -2.72867334        1 
H       2.44498224      -2.80526622      -1.92950885        1 
H      -3.48468272      -2.74578100      -0.19445347        1 
H      -4.63701738      -1.76265579       0.76326345        1 
C      -2.07282150       1.20960952      -1.03691734        6 
C       2.70563155       1.11334869      -0.57673864        6 
O       3.63317675       1.15013071       0.49118719        8 
H       2.80696847       2.00008465      -1.21947504        1 
H       2.86279891       0.22617241      -1.20304227        1 
C       4.96091514       0.86640778       0.08994528        6 
H       5.58215721       0.91921844       0.98396271        1 
H       5.32477827       1.59925450      -0.64426573        1 
H       5.03563392      -0.14086584      -0.33999584        1 
O      -3.16367944       1.69204954      -0.27658238        8 
H      -2.28521745       0.21225377      -1.44153240        1 
H      -1.86455663       1.87999737      -1.88351066        1 
C      -4.40245318       1.54364060      -0.93756326        6 
H      -5.17193519       1.93682820      -0.27259557        1 
H      -4.61520741       0.48633193      -1.14943984        1 
H      -4.42665596       2.10373431      -1.88348578        1 
