43
Lattice="0.0 0.0 0.0 0.0 0.0 0.0 0.0 0.0 0.0" Properties=species:S:1:pos:R:3:Z:I:1 pbc="F F F"
C      -0.60292818       0.12076725       0.88794626        6 
C       0.94203664      -0.12279873       0.80864801        6 
C      -1.39353205      -1.17829182       0.92836355        6 
C       1.39825855      -1.39139382       0.10903323        6 
O      -2.43585165      -1.24581196       0.08754601        8 
O      -1.11063275      -2.06203418       1.70349613        8 
O       0.47393626      -1.88768451      -0.73457253        8 
O       2.51203256      -1.84776089       0.20964734        8 
C       0.84205623      -3.06769257      -1.46777782        6 
C      -3.21506763      -2.45372498       0.15083575        6 
C      -0.80839801       1.27658761      -0.15737464        6 
C      -0.44310556       2.58315403       0.58500784        6 
C       1.08712616       2.40599316       0.76867051        6 
C       1.35841517       1.11995198      -0.05726474        6 
O       0.31737950       1.13357099      -1.04649696        8 
H      -0.81307847       0.53446750       1.87818584        1 
H       1.42705583      -0.11007801       1.78138094        1 
H       1.05448488      -3.88817425      -0.78084987        1 
H      -3.63001910      -2.58948917       1.15025630        1 
H      -0.66989344       3.43677874      -0.05655152        1 
H      -0.99235135       2.70667038       1.51826432        1 
H       1.64774758       3.24318873       0.35104030        1 
H       1.39498970       2.29037769       1.80803471        1 
H      -0.01857348      -3.30064608      -2.09116763        1 
H       1.72070384      -2.87545938      -2.08524444        1 
H      -2.59973099      -3.31828695      -0.10274849        1 
H      -4.01101610      -2.32248770      -0.57943190        1 
C      -2.07746081       1.35495560      -0.97698410        6 
C       2.71628389       1.07879167      -0.72665947        6 
O       3.68954241       1.15451721       0.29755916        8 
H       2.79933851       1.93435061      -1.41282288        1 
H       2.83610903       0.16211246      -1.31523788        1 
C       4.97232139       0.71307293      -0.11030624        6 
H       5.63315301       0.81952571       0.75015186        1 
H       5.36275676       1.32145827      -0.93843403        1 
H       4.94316503      -0.34032504      -0.41407295        1 
O      -3.14797630       1.62313932      -0.08683069        8 
H      -2.24320351       0.42195352      -1.52190642        1 
H      -1.96879902       2.17198454      -1.70515943        1 
C      -4.41385549       1.52434356      -0.70560811        6 
H      -5.16396177       1.73600050       0.05701294        1 
H      -4.58189950       0.51537337      -1.10665053        1 
H      -4.52100217       2.25127260      -1.52347379        1 
