43
Lattice="0.0 0.0 0.0 0.0 0.0 0.0 0.0 0.0 0.0" Properties=species:S:1:pos:R:3:Z:I:1 pbc="F F F"
C      -0.86252836      -0.06535897      -0.72909579        6 
C       0.71138103      -0.02534448      -0.86784004        6 
C      -1.45820438       1.17488754      -0.08043202        6 
C       1.36829401       1.29124950      -0.50166593        6 
O      -1.35025649       2.20973302      -0.94580725        8 
O      -1.96967802       1.27729018       1.00461915        8 
O       1.20656094       1.59373328       0.80426522        8 
O       1.94484954       2.00599430      -1.28242202        8 
C       1.74966251       2.85230140       1.23662670        6 
C      -1.84799961       3.47751120      -0.48527294        6 
C      -1.05272833      -1.40222368       0.04321401        6 
C      -0.68520331      -2.55987310      -0.92959760        6 
C       0.86633766      -2.51934329      -0.90231938        6 
C       1.11194221      -1.28188429      -0.00900600        6 
O       0.05658617      -1.38719037       0.95501944        8 
H      -1.30970802      -0.12115113      -1.72092814        1 
H       0.99340943      -0.18257919      -1.90606370        1 
H       1.34445079       3.66846373       0.63672437        1 
H      -1.34139017       3.77470586       0.43422809        1 
H      -1.06991214      -3.50466264      -0.54270189        1 
H      -1.10888906      -2.41173925      -1.92322914        1 
H       1.28005271      -3.40465707      -0.41551586        1 
H       1.32816495      -2.42419576      -1.88485130        1 
H       1.45251967       2.95265667       2.27801865        1 
H       2.83728733       2.85070448       1.14339216        1 
H      -2.92160051       3.41930192      -0.29885175        1 
H      -1.63459799       4.18085752      -1.28689931        1 
C      -2.34846922      -1.60383043       0.80335184        6 
C       2.44463382      -1.23598195       0.70772887        6 
O       3.44510773      -1.01059069      -0.26939821        8 
H       2.60967523      -2.19101411       1.22726600        1 
H       2.43657338      -0.43556578       1.45682856        1 
C       4.73348430      -0.82671001       0.28446683        6 
H       5.41932511      -0.66006949      -0.54600231        1 
H       5.05832836      -1.71193450       0.84881960        1 
H       4.75944712       0.04594002       0.95178948        1 
O      -3.40681898      -1.43531439      -0.12886433        8 
H      -2.42344150      -0.87817016       1.61582423        1 
H      -2.36307236      -2.61929525       1.22542568        1 
C      -4.68352632      -1.46527931       0.48070076        6 
H      -5.42125920      -1.32441008      -0.30980524        1 
H      -4.78721694      -0.66123913       1.22103052        1 
H      -4.86918797      -2.42942808       0.97506903        1 
