43
Lattice="0.0 0.0 0.0 0.0 0.0 0.0 0.0 0.0 0.0" Properties=species:S:1:pos:R:3:Z:I:1 pbc="F F F"
C      -0.60240405       0.11416754       0.86962437        6 
C       0.95610283      -0.09487997       0.73374298        6 
C      -1.47671501      -1.12944388       0.84927182        6 
C       1.47998403      -1.34050106       0.01753745        6 
O      -2.06537354      -1.38125220      -0.33494385        8 
O      -1.62116762      -1.82988135       1.82137628        8 
O       0.59333721      -2.34701592      -0.01653021        8 
O       2.59607883      -1.44809035      -0.43187918        8 
C       1.03552307      -3.57454451      -0.62263391        6 
C      -2.87566438      -2.56460904      -0.39046486        6 
C      -0.85009919       1.32329495      -0.10695190        6 
C      -0.53998811       2.59075509       0.71635290        6 
C       0.98572750       2.42904754       0.92699790        6 
C       1.32002170       1.23225906      -0.01438057        6 
O       0.27524665       1.27767228      -1.00342808        8 
H      -0.77024734       0.47358627       1.88526122        1 
H       1.42376807      -0.12510988       1.71986010        1 
H       1.93281930      -3.94393107      -0.12502582        1 
H      -3.70880362      -2.49303235       0.31077946        1 
H      -0.76965337       3.47466437       0.11750610        1 
H      -1.11703567       2.64462551       1.63914964        1 
H       1.53843403       3.31563274       0.61554668        1 
H       1.26406554       2.21811565       1.95995938        1 
H       0.21134155      -4.27244790      -0.49400618        1 
H       1.24716410      -3.41901294      -1.68156133        1 
H      -2.28023892      -3.44558811      -0.14641523        1 
H      -3.24048753      -2.62037119      -1.41437691        1 
C      -2.13278617       1.38294438      -0.90817692        6 
C       2.67287003       1.36613223      -0.68361872        6 
O       3.64833797       1.34266876       0.34441401        8 
H       2.69660829       2.32752557      -1.21832385        1 
H       2.83980158       0.56217253      -1.40212187        1 
C       4.95919516       1.11835354      -0.14028339        6 
H       5.62359072       1.11657939       0.72443561        1 
H       5.27487259       1.91425272      -0.83023517        1 
H       5.02590682       0.15008471      -0.65104651        1 
O      -3.20932893       1.36905378       0.01597004        8 
H      -2.19287315       0.53299900      -1.59236747        1 
H      -2.13998226       2.31163091      -1.49695698        1 
C      -4.46824832       1.20578883      -0.60570514        6 
H      -5.22037316       1.20630974       0.18363711        1 
H      -4.51868093       0.25411751      -1.15249231        1 
H      -4.68209878       2.02635587      -1.30494378        1 
