43
Lattice="0.0 0.0 0.0 0.0 0.0 0.0 0.0 0.0 0.0" Properties=species:S:1:pos:R:3:Z:I:1 pbc="F F F"
C      -0.72618358       0.10908240       0.89609347        6 
C       0.85249605       0.07446185       0.90917526        6 
C      -1.32689229      -1.27230254       0.67324098        6 
C       1.47960246      -1.26462006       0.57373366        6 
O      -2.09877549      -1.40032716      -0.41599090        8 
O      -1.10836517      -2.18463030       1.43568835        8 
O       1.05746016      -1.73076511      -0.62418283        8 
O       2.25725405      -1.85387154       1.27889463        8 
C       1.51001787      -3.04738668      -0.98222097        6 
C      -2.63988125      -2.71231773      -0.65183962        6 
C      -0.98937513       1.29566997      -0.08348681        6 
C      -0.60762423       2.59816918       0.67535886        6 
C       0.94182869       2.56315443       0.61383869        6 
C       1.17971892       1.22085615      -0.11401250        6 
O       0.08113292       1.16476098      -1.03511172        8 
H      -1.07620244       0.37398155       1.89474172        1 
H       1.23750159       0.32421329       1.89418459        1 
H       1.17997263      -3.77171120      -0.23565416        1 
H      -3.27082664      -3.02292225       0.18176367        1 
H      -1.00846439       3.46207620       0.14305644        1 
H      -1.00585618       2.61906312       1.68978518        1 
H       1.33635147       3.38234685       0.00972352        1 
H       1.42850795       2.60000154       1.58780567        1 
H       1.05843637      -3.25550197      -1.95014938        1 
H       2.59863323      -3.07550134      -1.05379591        1 
H      -1.83355572      -3.43558956      -0.78203367        1 
H      -3.22445400      -2.62347996      -1.56526049        1 
C      -2.31459437       1.37513406      -0.81424799        6 
C       2.48823284       1.11156743      -0.86762990        6 
O       3.53086714       1.20438468       0.08531282        8 
H       2.54969949       1.92769818      -1.60249514        1 
H       2.53450106       0.16084242      -1.41317590        1 
C       4.81002033       0.94409361      -0.45998611        6 
H       5.52976172       1.03780682       0.35298316        1 
H       5.06318867       1.66354136      -1.25144497        1 
H       4.86625302      -0.07246617      -0.87270432        1 
O      -3.33984301       1.34363661       0.16621824        8 
H      -2.41395032       0.54121474      -1.51196111        1 
H      -2.35233712       2.31623450      -1.38197069        1 
C      -4.63391779       1.25377716      -0.39540739        6 
H      -5.34391478       1.22407327       0.43152018        1 
H      -4.74148811       0.34040177      -0.99666638        1 
H      -4.85923288       2.12273074      -1.02981771        1 
