43
Lattice="0.0 0.0 0.0 0.0 0.0 0.0 0.0 0.0 0.0" Properties=species:S:1:pos:R:3:Z:I:1 pbc="F F F"
C      -0.88234864       0.03916608      -0.79683420        6 
C       0.69281540      -0.07075487      -0.87178667        6 
C      -1.55526877       1.32192056      -0.31713259        6 
C       1.50705231       1.18849784      -0.61251250        6 
O      -0.71987894       2.35687352      -0.15347460        8 
O      -2.75030672       1.42089418      -0.16489531        8 
O       1.77587242       1.40386424       0.68987123        8 
O       1.88708596       1.91564398      -1.49700669        8 
C       2.52575566       2.59201937       0.98030395        6 
C      -1.31939109       3.61709227       0.19662293        6 
C      -1.21924675      -1.23259653       0.07075858        6 
C      -0.96150759      -2.48255590      -0.81242923        6 
C       0.58472243      -2.57075188      -0.78882372        6 
C       0.95179015      -1.31839835       0.04279395        6 
O      -0.12189718      -1.25700331       0.99648603        8 
H      -1.30379376      -0.09771971      -1.79456722        1 
H       0.96467603      -0.31665933      -1.89693003        1 
H       1.98855933       3.47527645       0.63108928        1 
H      -1.75806890       3.56192861       1.19404052        1 
H      -1.42347449      -3.35799754      -0.35445173        1 
H      -1.38443730      -2.37072309      -1.81023483        1 
H       0.92267078      -3.46607101      -0.26375011        1 
H       1.04581135      -2.56611184      -1.77632839        1 
H       2.63360655       2.61216874       2.06293091        1 
H       3.50323681       2.55747537       0.49601277        1 
H      -2.09307775       3.88305047      -0.52422063        1 
H      -0.50628294       4.33885369       0.17219432        1 
C      -2.52806019      -1.29071696       0.83229787        6 
C       2.27770375      -1.41350108       0.77254302        6 
O       3.30176525      -1.22428519      -0.19014213        8 
H       2.36178383      -2.40569649       1.23862612        1 
H       2.33071450      -0.65310009       1.55604719        1 
C       4.59759357      -1.20051630       0.37501357        6 
H       5.30183733      -1.04031395      -0.44144158        1 
H       4.83552386      -2.15016512       0.87430008        1 
H       4.69848029      -0.38466664       1.10413520        1 
O      -3.56384238      -1.50831015      -0.10791694        8 
H      -2.69922780      -0.37235757       1.40079028        1 
H      -2.46863495      -2.12791369       1.54369224        1 
C      -4.84687258      -1.18409605       0.39481551        6 
H      -5.56409509      -1.40104278      -0.39722880        1 
H      -4.90458669      -0.12046766       0.65479627        1 
H      -5.09733030      -1.78993042       1.27771036        1 
