43
Lattice="0.0 0.0 0.0 0.0 0.0 0.0 0.0 0.0 0.0" Properties=species:S:1:pos:R:3:Z:I:1 pbc="F F F"
C      -0.66199651       0.03536075      -0.68641236        6 
C       0.90595943       0.10701680      -0.70161221        6 
C      -1.32587612       1.11957207       0.13691846        6 
C       1.47780340       1.41638370      -0.17828798        6 
O      -2.39922615       1.62024169      -0.50733366        8 
O      -0.99197226       1.47156119       1.24307972        8 
O       0.85188528       2.44472556      -0.80115507        8 
O       2.40402254       1.57363831       0.57334876        8 
C       1.22877250       3.76571667      -0.37565475        6 
C      -3.15217339       2.61581600       0.20513909        6 
C      -0.87168946      -1.37516097      -0.02432078        6 
C      -0.48035455      -2.44774438      -1.07081579        6 
C       1.06901597      -2.36859855      -1.02286657        6 
C       1.29476653      -1.23039962       0.00538655        6 
O       0.20290133      -1.43439711       0.92055556        8 
H      -1.08319752       0.06353814      -1.68767746        1 
H       1.24372203       0.07694921      -1.74028687        1 
H       2.29709576       3.92812222      -0.52361043        1 
H      -2.52236551       3.47406419       0.44462684        1 
H      -0.84514625      -3.42623649      -0.75346078        1 
H      -0.90392349      -2.23780839      -2.05280907        1 
H       1.50411417      -3.29243240      -0.63821012        1 
H       1.53301088      -2.15711501      -1.98610201        1 
H       0.64792445       4.44599497      -0.99506656        1 
H       0.98206746       3.89942680       0.67883843        1 
H      -3.55667013       2.20179520       1.13059993        1 
H      -3.95706607       2.90612181      -0.46663144        1 
C      -2.18415552      -1.61659370       0.69211211        6 
C       2.60946262      -1.30406945       0.75162966        6 
O       3.64292163      -1.10928905      -0.20092567        8 
H       2.69638895      -2.29577875       1.21934163        1 
H       2.64531292      -0.54138036       1.53226701        1 
C       4.88386260      -0.77674435       0.39493675        6 
H       5.60232429      -0.64300901      -0.41461697        1 
H       5.23944111      -1.57906671       1.05721496        1 
H       4.80252962       0.15527063       0.96699052        1 
O      -3.21624281      -1.59736062      -0.27793547        8 
H      -2.34862545      -0.84955299       1.45986887        1 
H      -2.13659145      -2.59261342       1.19639628        1 
C      -4.50692998      -1.71774529       0.28665166        6 
H      -5.22221733      -1.68064131      -0.53514560        1 
H      -4.71608385      -0.89374294       0.98336688        1 
H      -4.62448192      -2.66976048       0.82327890        1 
