43
Lattice="0.0 0.0 0.0 0.0 0.0 0.0 0.0 0.0 0.0" Properties=species:S:1:pos:R:3:Z:I:1 pbc="F F F"
C      -0.77544433      -0.09427751       0.79164562        6 
C       0.78353125       0.04540916       0.77506617        6 
C      -1.34859118      -1.29528109       0.06269473        6 
C       1.56295712      -1.22580966       0.48565524        6 
O      -0.69467040      -1.55771985      -1.08849787        8 
O      -2.32531380      -1.90559624       0.42300974        8 
O       0.95407649      -2.27704197       1.08374937        8 
O       2.64273948      -1.31328522      -0.04191614        8 
C       1.61220057      -3.54936981       0.96658653        6 
C      -1.18239827      -2.67062226      -1.85494750        6 
C      -1.17210512       1.22992907       0.04822850        6 
C      -0.83751352       2.42746502       0.97489008        6 
C       0.70073608       2.54031960       0.79350138        6 
C       0.99182813       1.31912999      -0.11276032        6 
O      -0.16479318       1.31435435      -0.96908025        8 
H      -1.18866111      -0.12556809       1.79618903        1 
H       1.11481139       0.28107834       1.79166949        1 
H       2.60250949      -3.51242043       1.42282036        1 
H      -2.21081318      -2.49515257      -2.17528921        1 
H      -1.35333141       3.32320080       0.62570956        1 
H      -1.14978788       2.24648295       2.00356677        1 
H       0.97327607       3.45406129       0.26259861        1 
H       1.26462798       2.51404664       1.72536167        1 
H       0.97217012      -4.25440559       1.49249294        1 
H       1.71166499      -3.83046351      -0.08335441        1 
H      -1.14654455      -3.58659930      -1.26222939        1 
H      -0.52130171      -2.74217979      -2.71578406        1 
C      -2.54867514       1.26984252      -0.58247443        6 
C       2.24819163       1.43316702      -0.94861262        6 
O       3.33150024       1.62328159      -0.05466028        8 
H       2.14308950       2.29757885      -1.62046618        1 
H       2.39075666       0.53415430      -1.55411158        1 
C       4.59034095       1.35105392      -0.64227186        6 
H       5.34527575       1.52681588       0.12479530        1 
H       4.78815648       2.01616549      -1.49522038        1 
H       4.64591593       0.30754304      -0.97389330        1 
O      -3.49526573       1.27678810       0.46797104        8 
H      -2.70072036       0.40396426      -1.24046644        1 
H      -2.63441364       2.17678860      -1.19877290        1 
C      -4.82237911       1.06298470       0.02448891        6 
H      -5.46194104       1.08966945       0.90660835        1 
H      -4.92255296       0.08397189      -0.46218138        1 
H      -5.14330585       1.84701380      -0.67615102        1 
