43
Lattice="0.0 0.0 0.0 0.0 0.0 0.0 0.0 0.0 0.0" Properties=species:S:1:pos:R:3:Z:I:1 pbc="F F F"
C      -0.70588409       0.04180473       0.88400336        6 
C       0.86679933       0.08318658       0.73708818        6 
C      -1.36835122      -1.28026326       0.55056304        6 
C       1.45505561      -1.13697701       0.04764454        6 
O      -1.21918806      -1.61410789      -0.74796805        8 
O      -1.95120435      -1.96901500       1.35061180        8 
O       1.49185807      -2.16142047       0.93268528        8 
O       1.81919683      -1.24323972      -1.09475976        8 
C       1.95853735      -3.42225203       0.42192431        6 
C      -1.78588993      -2.87114279      -1.15382027        6 
C      -1.11637219       1.28700318       0.01178340        6 
C      -0.88548649       2.53245169       0.89738034        6 
C       0.66650294       2.57773858       0.94073667        6 
C       1.04685570       1.42330240      -0.03080024        6 
O      -0.05780206       1.39779606      -0.94726874        8 
H      -0.97792157       0.21500772       1.92247298        1 
H       1.32409109       0.12546253       1.72399391        1 
H       2.99849533      -3.34245024       0.10102643        1 
H      -2.87288090      -2.84894820      -1.05523452        1 
H      -1.29643069       3.41211979       0.39814140        1 
H      -1.35717366       2.44437870       1.87595687        1 
H       1.05302826       3.52553622       0.56317019        1 
H       1.07843336       2.42559752       1.93890413        1 
H       1.86489932      -4.12312708       1.24834302        1 
H       1.34742463      -3.73954188      -0.42453723        1 
H      -1.39197892      -3.68401776      -0.54195162        1 
H      -1.49609971      -2.99524325      -2.19475447        1 
C      -2.44230081       1.21901366      -0.71602867        6 
C       2.34422270       1.62142025      -0.78955748        6 
O       3.40317419       1.40615084       0.13242789        8 
H       2.37962279       2.64559660      -1.18815906        1 
H       2.39887281       0.91310531      -1.61931604        1 
C       4.67802733       1.43256305      -0.48148667        6 
H       5.41577825       1.25014136       0.30039997        1 
H       4.88020625       2.40920159      -0.94344096        1 
H       4.76340715       0.65285602      -1.24993411        1 
O      -3.44960716       0.97936930       0.25063011        8 
H      -2.41324136       0.41640255      -1.46207555        1 
H      -2.61740032       2.16989038      -1.23982147        1 
C      -4.72612015       0.76173580      -0.31846133        6 
H      -5.41855988       0.58425434       0.50423341        1 
H      -4.72273837      -0.11541651      -0.98050388        1 
H      -5.06435941       1.63533445      -0.89299681        1 
