43
Lattice="0.0 0.0 0.0 0.0 0.0 0.0 0.0 0.0 0.0" Properties=species:S:1:pos:R:3:Z:I:1 pbc="F F F"
C      -0.71473408       0.09029953       0.88838985        6 
C       0.86309002       0.05283946       0.90076383        6 
C      -1.32254351      -1.29031951       0.67496485        6 
C       1.48847680      -1.28090359       0.54070827        6 
O      -2.18999725      -1.38902731      -0.34324396        8 
O      -1.03948702      -2.22318669       1.38951169        8 
O       1.06940963      -1.72187804      -0.66786558        8 
O       2.26520816      -1.88383924       1.23510399        8 
C       1.52217263      -3.03171750      -1.04983014        6 
C      -2.76803371      -2.69044362      -0.55317441        6 
C      -0.97793577       1.28344278      -0.08564529        6 
C      -0.60214226       2.58147836       0.68377576        6 
C       0.94757712       2.54607933       0.63462095        6 
C       1.19177273       1.21208352      -0.10640542        6 
O       0.09714116       1.16220237      -1.03296052        8 
H      -1.06222329       0.35708585       1.88829472        1 
H       1.25088743       0.28604065       1.88866897        1 
H       1.18394967      -3.77081679      -0.32157831        1 
H      -3.35206412      -2.99396753       0.31665025        1 
H      -0.99791819       3.44801604       0.15198871        1 
H      -1.00968350       2.59794182       1.69447067        1 
H       1.34750201       3.37213834       0.04358889        1 
H       1.42594319       2.57138671       1.61301085        1 
H       1.07886564      -3.21844222      -2.02589593        1 
H       2.61132422      -3.06076223      -1.11231193        1 
H      -1.98561412      -3.42785605      -0.73640327        1 
H      -3.40728944      -2.58420085      -1.42716304        1 
C      -2.29716786       1.37299225      -0.82513936        6 
C       2.50370421       1.11534503      -0.85610807        6 
O       3.54258823       1.19703279       0.10197734        8 
H       2.56666863       1.94170682      -1.57932474        1 
H       2.55395917       0.17249239      -1.41463502        1 
C       4.82382918       0.94413702      -0.44191826        6 
H       5.54073819       1.02885859       0.37453417        1 
H       5.07914951       1.67300090      -1.22404806        1 
H       4.88228504      -0.06744943      -0.86635430        1 
O      -3.32824721       1.39146598       0.14932513        8 
H      -2.41369786       0.52552192      -1.50340210        1 
H      -2.30806108       2.30083370      -1.41555692        1 
C      -4.61986264       1.30067860      -0.41727763        6 
H      -5.33588638       1.32107386       0.40475417        1 
H      -4.74065481       0.36360594      -0.97829012        1 
H      -4.82450082       2.14459642      -1.09132022        1 
