43
Lattice="0.0 0.0 0.0 0.0 0.0 0.0 0.0 0.0 0.0" Properties=species:S:1:pos:R:3:Z:I:1 pbc="F F F"
C      -0.87205143      -0.03163185      -0.73097972        6 
C       0.70404583      -0.03035292      -0.85458021        6 
C      -1.49667528       1.23553717      -0.15814577        6 
C       1.40267849       1.26141569      -0.47324080        6 
O      -1.02495087       2.30821907      -0.82777199        8 
O      -2.36539655       1.31796427       0.67297052        8 
O       1.31678456       1.51251041       0.85341963        8 
O       1.93473004       2.00701057      -1.25514623        8 
C       1.88611831       2.75590347       1.29405837        6 
C      -1.55697708       3.58836396      -0.44874863        6 
C      -1.10502486      -1.36232036       0.04767321        6 
C      -0.77136801      -2.53193064      -0.92275501        6 
C       0.77965293      -2.52899029      -0.90560171        6 
C       1.06428669      -1.30345795      -0.00675743        6 
O       0.00548090      -1.37748799       0.95864487        8 
H      -1.30350402      -0.10307138      -1.73159138        1 
H       0.99094411      -0.18586051      -1.89198971        1 
H       1.42302196       3.59238755       0.76834945        1 
H      -1.39256139       3.76960483       0.61468065        1 
H      -1.17631787      -3.46450852      -0.52731061        1 
H      -1.20052236      -2.37902229      -1.91308552        1 
H       1.17484192      -3.42837211      -0.42947571        1 
H       1.23641712      -2.43792390      -1.89098541        1 
H       1.67931144       2.80864892       2.36081726        1 
H       2.96162590       2.77215558       1.10876471        1 
H      -2.62711677       3.63304681      -0.65771445        1 
H      -1.01634525       4.31355208      -1.05271910        1 
C      -2.39929050      -1.54942190       0.81296927        6 
C       2.40003661      -1.30955116       0.70762105        6 
O       3.39971022      -1.05048611      -0.26280285        8 
H       2.55562856      -2.29062735       1.17904329        1 
H       2.40531710      -0.54512942       1.49232106        1 
C       4.69317371      -0.91088052       0.29206184        6 
H       5.37715173      -0.71378238      -0.53331741        1 
H       5.00857910      -1.82655537       0.81124996        1 
H       4.73408810      -0.07189682       1.00058772        1 
O      -3.45473451      -1.48980153      -0.13312870        8 
H      -2.50958609      -0.77444462       1.57356002        1 
H      -2.37569387      -2.53323012       1.30488023        1 
C      -4.73173059      -1.41806351       0.47250887        6 
H      -5.46696259      -1.37610440      -0.33173768        1 
H      -4.82195429      -0.51815758       1.09385992        1 
H      -4.93173636      -2.30365361       1.09274921        1 
