43
Lattice="0.0 0.0 0.0 0.0 0.0 0.0 0.0 0.0 0.0" Properties=species:S:1:pos:R:3:Z:I:1 pbc="F F F"
C      -0.66971816       0.11148069       0.89208969        6 
C       0.89561922      -0.02523293       0.86523291        6 
C      -1.36252756      -1.23977134       0.79024911        6 
C       1.45663187      -1.33001651       0.33376968        6 
O      -2.35123514      -1.31266252      -0.11232143        8 
O      -1.04976671      -2.16580653       1.50193485        8 
O       0.77680711      -1.78571927      -0.74036745        8 
O       2.44809755      -1.86422573       0.76538181        8 
C       1.22207125      -3.03812349      -1.28620434        6 
C      -3.02726959      -2.58027286      -0.20318170        6 
C      -0.90012546       1.29284739      -0.11095722        6 
C      -0.51905552       2.59187882       0.64733501        6 
C       1.02817427       2.48679021       0.69476641        6 
C       1.26821775       1.17089360      -0.08284433        6 
O       0.19494439       1.15670693      -1.03437588        8 
H      -0.96113252       0.44677578       1.89057649        1 
H       1.33861503       0.10614873       1.84853481        1 
H       1.11570337      -3.82982477      -0.54269969        1 
H      -3.50474695      -2.82799603       0.74570552        1 
H      -0.83905037       3.45692416       0.06399384        1 
H      -0.99037295       2.65889056       1.62771915        1 
H       1.50314036       3.31719787       0.16964375        1 
H       1.44069686       2.44911069       1.70224716        1 
H       0.57886853      -3.22567627      -2.14360137        1 
H       2.26581334      -2.97348045      -1.59732040        1 
H      -2.32127551      -3.36872715      -0.46743815        1 
H      -3.77250420      -2.45390136      -0.98579938        1 
C      -2.19697849       1.39062503      -0.88545401        6 
C       2.59846900       1.07497409      -0.80030990        6 
O       3.61323030       1.19051943       0.17754117        8 
H       2.66753874       1.88371796      -1.54247979        1 
H       2.67517397       0.12105131      -1.33852652        1 
C       4.88508311       0.76987208      -0.28030838        6 
H       5.58271822       0.90654089       0.54581021        1 
H       5.22184795       1.36841110      -1.13849840        1 
H       4.86846621      -0.29049832      -0.56304537        1 
O      -3.24652265       1.54175992       0.05630971        8 
H      -2.34574823       0.49981466      -1.49987821        1 
H      -2.14320879       2.26813578      -1.54637053        1 
C      -4.52770927       1.45342142      -0.53249090        6 
H      -5.26004405       1.58334005       0.26486162        1 
H      -4.67917586       0.47337210      -1.00565524        1 
H      -4.67899421       2.23748422      -1.28808695        1 
