43
Lattice="0.0 0.0 0.0 0.0 0.0 0.0 0.0 0.0 0.0" Properties=species:S:1:pos:R:3:Z:I:1 pbc="F F F"
C      -0.66684535       0.15161222       0.90449523        6 
C       0.89514792      -0.02768773       0.86103136        6 
C      -1.40444763      -1.17771043       0.83870036        6 
C       1.43845532      -1.33236858       0.31111912        6 
O      -2.25919423      -1.31789404      -0.18472011        8 
O      -1.23400913      -2.03057153       1.67870267        8 
O       0.64809615      -1.87078687      -0.63824335        8 
O       2.51303751      -1.79141292       0.61428088        8 
C       1.10168213      -3.10183238      -1.22506719        6 
C      -2.94599996      -2.57919413      -0.25971445        6 
C      -0.88147049       1.31503170      -0.12186079        6 
C      -0.48596623       2.62112244       0.61310215        6 
C       1.05782625       2.48634113       0.68093520        6 
C       1.28506244       1.16367432      -0.09160998        6 
O       0.21259075       1.15152086      -1.04362867        8 
H      -0.93171011       0.51514097       1.89900021        1 
H       1.35202824       0.09532968       1.83940183        1 
H       1.15897793      -3.88266571      -0.46500334        1 
H      -3.57403740      -2.72681218       0.61997196        1 
H      -0.78236264       3.47960611       0.00777909        1 
H      -0.96716455       2.71640708       1.58644905        1 
H       1.55723571       3.30663313       0.16309573        1 
H       1.45604693       2.44123449       1.69394071        1 
H       0.35941507      -3.35257813      -1.97999429        1 
H       2.08307136      -2.97030026      -1.68287146        1 
H      -2.22833174      -3.39773970      -0.33026715        1 
H      -3.55475126      -2.52360535      -1.16003275        1 
C      -2.17967143       1.40740126      -0.89479573        6 
C       2.61569410       1.06126733      -0.80757406        6 
O       3.63022116       1.19375428       0.16793405        8 
H       2.68002527       1.86254465      -1.55827916        1 
H       2.69777767       0.10268904      -1.33558149        1 
C       4.89374359       0.72201603      -0.26386910        6 
H       5.58855076       0.87224120       0.56239806        1 
H       5.25320160       1.27913174      -1.14064379        1 
H       4.84949072      -0.34725384      -0.50491290        1 
O      -3.22962840       1.52921451       0.05152849        8 
H      -2.31574230       0.52213111      -1.51964296        1 
H      -2.14126260       2.29434374      -1.54396433        1 
C      -4.51076606       1.42163173      -0.53495257        6 
H      -5.24328225       1.52980473       0.26545265        1 
H      -4.64379587       0.44313857      -1.01682230        1 
H      -4.67919255       2.20963575      -1.28268302        1 
