43
Lattice="0.0 0.0 0.0 0.0 0.0 0.0 0.0 0.0 0.0" Properties=species:S:1:pos:R:3:Z:I:1 pbc="F F F"
C      -0.68612879       0.14734993       0.87561494        6 
C       0.87823787      -0.05331331       0.80880927        6 
C      -1.55452155      -1.08967582       0.69504831        6 
C       1.48275643      -1.37461687       0.35400074        6 
O      -1.95052621      -1.31456717      -0.57025086        8 
O      -1.89642602      -1.77815221       1.62671715        8 
O       0.59922752      -2.27017822      -0.10809133        8 
O       2.67176338      -1.59124116       0.39196921        8 
C       1.13246447      -3.53906327      -0.52897975        6 
C      -2.77183460      -2.47389102      -0.76998814        6 
C      -0.88128969       1.35562947      -0.10350813        6 
C      -0.43861260       2.62675146       0.66153653        6 
C       1.10181180       2.46049734       0.67525088        6 
C       1.28033273       1.14945948      -0.13367183        6 
O       0.18264804       1.18387996      -1.05639049        8 
H      -0.93783053       0.46414513       1.88610438        1 
H       1.31948046       0.10616782       1.79247614        1 
H       1.62147917      -4.04086195       0.30685466        1 
H      -3.69488803      -2.39571898      -0.19315238        1 
H      -0.73636673       3.51198686       0.09659520        1 
H      -0.88829188       2.69488006       1.65219928        1 
H       1.59991210       3.28075692       0.15679203        1 
H       1.53450743       2.38813261       1.67207596        1 
H       0.27427632      -4.11261382      -0.87144455        1 
H       1.85009412      -3.39985722      -1.33828573        1 
H      -2.23833269      -3.37542539      -0.46426325        1 
H      -2.98560353      -2.49910731      -1.83678508        1 
C      -2.20310904       1.49233945      -0.83468456        6 
C       2.58896512       1.07166677      -0.89340578        6 
O       3.63461983       1.28859795       0.03461087        8 
H       2.58407292       1.85361294      -1.66722439        1 
H       2.70040093       0.10389277      -1.39281968        1 
C       4.89403110       0.83010745      -0.42172996        6 
H       5.61768995       1.05676271       0.36158077        1 
H       5.19748613       1.34195851      -1.34630800        1 
H       4.87487632      -0.25272074      -0.59283829        1 
O      -3.23214821       1.41487688       0.13906996        8 
H      -2.30578331       0.69672558      -1.57646418        1 
H      -2.23068362       2.46269693      -1.35067650        1 
C      -4.52826122       1.40401778      -0.42556781        6 
H      -5.23763925       1.31906891       0.39780015        1 
H      -4.65790581       0.54920135      -1.10374406        1 
H      -4.73280135       2.32941170      -0.98219511        1 
