43
Lattice="0.0 0.0 0.0 0.0 0.0 0.0 0.0 0.0 0.0" Properties=species:S:1:pos:R:3:Z:I:1 pbc="F F F"
C      -0.68218627      -0.16982836       0.69837574        6 
C       0.88894826      -0.06524327       0.68424883        6 
C      -1.26161366      -1.43184611       0.07124612        6 
C       1.63050492      -1.23031751       0.04250970        6 
O      -2.60931224      -1.38722266       0.04528142        8 
O      -0.64106616      -2.40655904      -0.27357034        8 
O       1.94234019      -2.14374188       0.98675180        8 
O       1.95773609      -1.32902909      -1.11314575        8 
C       2.51695944      -3.36640689       0.49675313        6 
C      -3.27036578      -2.56674346      -0.44863424        6 
C      -1.07147052       1.20643014       0.03406694        6 
C      -0.78233627       2.32176541       1.07410416        6 
C       0.76409240       2.41253599       1.01354898        6 
C       1.09776704       1.31182340      -0.02240970        6 
O      -0.01980216       1.38164935      -0.92470328        8 
H      -1.05270431      -0.18701676       1.72541167        1 
H       1.25030100      -0.01793723       1.70979591        1 
H       3.46247826      -3.17179621      -0.01200548        1 
H      -3.01960407      -3.43132296       0.16754892        1 
H      -1.25239581       3.25196060       0.75197731        1 
H      -1.17766540       2.07775379       2.05986119        1 
H       1.09230901       3.38328550       0.63768429        1 
H       1.25581458       2.24002711       1.97077909        1 
H       2.67734462      -3.98633657       1.37663097        1 
H       1.82281307      -3.84758402      -0.19385642        1 
H      -2.97851768      -2.76569905      -1.48101160        1 
H      -4.33409819      -2.34768789      -0.38536937        1 
C      -2.40274726       1.36569144      -0.67250107        6 
C       2.38887023       1.51927446      -0.78748250        6 
O       3.45307198       1.27420184       0.12108489        8 
H       2.42679337       2.55317609      -1.15975508        1 
H       2.43284296       0.83102890      -1.63397169        1 
C       4.71633919       1.21644083      -0.51454036        6 
H       5.45647710       1.01193792       0.25973656        1 
H       4.96375477       2.16966731      -1.00270164        1 
H       4.74406795       0.41525967      -1.26464944        1 
O      -3.42072235       1.43027579       0.30877375        8 
H      -2.58310154       0.54288285      -1.37170759        1 
H      -2.36202011       2.30091593      -1.25000103        1 
C      -4.71916122       1.36401551      -0.24260914        6 
H      -5.42536089       1.42043835       0.58616231        1 
H      -4.87253423       0.41980979      -0.78345962        1 
H      -4.90855451       2.19925310      -0.93215154        1 
