35
Lattice="0.0 0.0 0.0 0.0 0.0 0.0 0.0 0.0 0.0" Properties=species:S:1:pos:R:3:Z:I:1 pbc="F F F"
C      -0.36146508       0.80650724      -0.88320960        6 
C      -0.44911889      -0.77238936      -0.83025186        6 
C       1.03466693       1.28260225      -0.49651077        6 
C       0.90971657      -1.44598226      -0.75932561        6 
O       1.18333973       1.57478296       0.80729622        8 
O       1.94288407       1.34173453      -1.29997273        8 
O       1.44268367      -1.43833605       0.48373194        8 
O       1.45781544      -1.94962083      -1.71400292        8 
C       2.76790152      -1.98949763       0.57525062        6 
C       2.52298240       1.90009763       1.20944966        6 
C      -1.54817928       1.17801519       0.05664704        6 
C      -2.86351420       0.72659994      -0.65365646        6 
C      -2.89213812      -0.79130332      -0.34634721        6 
C      -1.50545169      -0.98713951       0.31687641        6 
O      -1.39986510       0.20742305       1.10806601        8 
H      -0.50936551       1.15520922      -1.90738771        1 
H      -0.85434724      -1.13039191      -1.77877417        1 
H       3.44956365      -1.43779567      -0.07802872        1 
H       2.89857237       2.76166879       0.65073876        1 
H      -3.72225400       1.24497626      -0.21749432        1 
H      -2.85024207       0.95259838      -1.72479936        1 
H      -3.67072566      -1.03178598       0.38369412        1 
H      -3.04412560      -1.42136505      -1.22822143        1 
H       3.05655162      -1.88140214       1.62126705        1 
H       2.76778546      -3.04262529       0.28042061        1 
H       3.18554560       1.04788152       1.03305825        1 
H       2.46052453       2.12372364       2.27465263        1 
C      -1.37431555      -2.22298785       1.18061680        6 
H      -2.19349889      -2.25323431       1.90608759        1 
H      -1.42782778      -3.12551121       0.56125344        1 
H      -0.42559010      -2.22144719       1.71787038        1 
C      -1.61140215       2.59000026       0.60404921        6 
H      -2.46558159       2.67600540       1.28333046        1 
H      -0.70426280       2.85179607       1.14759800        1 
H      -1.75450221       3.30261319      -0.21643664        1 
