35
Lattice="0.0 0.0 0.0 0.0 0.0 0.0 0.0 0.0 0.0" Properties=species:S:1:pos:R:3:Z:I:1 pbc="F F F"
C      -0.09103864       0.58587068      -0.76039495        6 
C      -0.28635209      -0.95142117      -0.58087030        6 
C       1.01222488       1.15007211       0.12177256        6 
C       0.96399366      -1.72566242      -0.19201508        6 
O       1.18583739       2.46925116      -0.11627950        8 
O       1.62508662       0.55113820       0.97865850        8 
O       1.96813929      -1.39129327      -1.04112764        8 
O       1.06641246      -2.58738430       0.64957223        8 
C       3.23510304      -1.99503845      -0.73950793        6 
C       2.16225758       3.11577036       0.71842295        6 
C      -1.49778941       1.07707785      -0.24488256        6 
C      -2.58650553       0.50200628      -1.20699557        6 
C      -2.76977380      -0.93658506      -0.65888632        6 
C      -1.57494320      -1.03318334       0.31886632        6 
O      -1.63301491       0.27128972       0.93310558        8 
H       0.09364659       0.88444079      -1.79492210        1 
H      -0.52746244      -1.36309040      -1.56898359        1 
H       3.15826481      -3.08586265      -0.74928870        1 
H       3.13666758       2.63065346       0.61511018        1 
H      -3.50738623       1.08770015      -1.13233371        1 
H      -2.26349530       0.53002584      -2.25274547        1 
H      -3.70135795      -1.02525482      -0.09189377        1 
H      -2.76458191      -1.71146521      -1.43246539        1 
H       3.91837469      -1.65042396      -1.51709230        1 
H       3.57671199      -1.66764907       0.24666392        1 
H       1.85554756       3.07155275       1.76737811        1 
H       2.20569256       4.14893586       0.37237594        1 
C      -1.67829195      -2.10753887       1.37835250        6 
H      -2.63561752      -1.99865963       1.89931047        1 
H      -1.62874027      -3.10214074       0.92697775        1 
H      -0.86186711      -2.02596544       2.09542094        1 
C      -1.68957849       2.53984441       0.10017651        6 
H      -2.72151009       2.69340545       0.43152710        1 
H      -1.01965354       2.85378042       0.90208606        1 
H      -1.50140061       3.17280953      -0.77225760        1 
