35
Lattice="0.0 0.0 0.0 0.0 0.0 0.0 0.0 0.0 0.0" Properties=species:S:1:pos:R:3:Z:I:1 pbc="F F F"
C       0.12384865       0.94352500       0.56799252        6 
C       0.40262472      -0.57368315       0.92427571        6 
C      -1.27703695       1.13961276       0.02395586        6 
C      -0.74850743      -1.44671929       0.43904265        6 
O      -2.10480018       1.54772431       1.00763575        8 
O      -1.64918889       0.90348539      -1.10731702        8 
O      -0.59860590      -1.90193730      -0.81288279        8 
O      -1.74225997      -1.64062287       1.11178015        8 
C      -1.76127457      -2.52486280      -1.38549132        6 
C      -3.50208640       1.55436169       0.66596979        6 
C       1.31536811       1.25555411      -0.40595106        6 
C       2.54452258       1.52466025       0.49753067        6 
C       2.81911972       0.10699633       1.06162945        6 
C       1.80010313      -0.76320167       0.26034503        6 
O       1.64564226      -0.02685544      -0.96265162        8 
H       0.19818582       1.54794854       1.47428942        1 
H       0.43088147      -0.70746038       2.00771616        1 
H      -2.56925983      -1.79182921      -1.45262250        1 
H      -3.82957662       0.53519885       0.44189985        1 
H       3.37485220       1.87177983      -0.12471765        1 
H       2.35646587       2.28151431       1.26530753        1 
H       3.83971501      -0.22219811       0.84599641        1 
H       2.66840780       0.03069815       2.14321749        1 
H      -1.45511834      -2.84951024      -2.38009609        1 
H      -2.08496586      -3.37503554      -0.77926400        1 
H      -3.68669366       2.19451294      -0.20087687        1 
H      -4.01709949       1.93695106       1.54756984        1 
C       2.27352704      -2.17963777      -0.00031640        6 
H       3.25206849      -2.15042877      -0.48992920        1 
H       2.37970492      -2.72046226       0.94702362        1 
H       1.57620996      -2.71931932      -0.64097859        1 
C       1.07269314       2.26827162      -1.50420472        6 
H       1.98547716       2.39471522      -2.09504294        1 
H       0.26543830       1.93812209      -2.15962942        1 
H       0.80332214       3.23926377      -1.07312890        1 
