35
Lattice="0.0 0.0 0.0 0.0 0.0 0.0 0.0 0.0 0.0" Properties=species:S:1:pos:R:3:Z:I:1 pbc="F F F"
C       0.15582864       0.99132163       0.53258374        6 
C       0.30997818      -0.55285695       0.85850360        6 
C      -1.22510673       1.33115359       0.00815393        6 
C      -0.87818791      -1.34518903       0.31110220        6 
O      -2.05601850       1.58098297       1.03784575        8 
O      -1.58226517       1.29151189      -1.15131636        8 
O      -0.60263001      -2.13831032      -0.73451913        8 
O      -1.98371627      -1.27272920       0.81009763        8 
C      -1.73725497      -2.81375358      -1.30723741        6 
C      -3.45149669       1.64087822       0.69720684        6 
C       1.38523960       1.23445062      -0.41491457        6 
C       2.59959437       1.43863017       0.52159599        6 
C       2.73997271       0.02444048       1.13449067        6 
C       1.73092296      -0.80847380       0.27494612        6 
O       1.66379706      -0.07004395      -0.95659014        8 
H       0.27724061       1.55551965       1.46068300        1 
H       0.26721737      -0.70559009       1.94029599        1 
H      -2.48150291      -2.08295737      -1.63397057        1 
H      -3.77067233       0.66930907       0.31161031        1 
H       3.47486800       1.69907798      -0.08122156        1 
H       2.44479588       2.23185198       1.25964316        1 
H       3.75241987      -0.37093488       1.01523517        1 
H       2.49775057      -0.01132969       2.20184141        1 
H      -1.34309012      -3.37039480      -2.15769014        1 
H      -2.19209339      -3.48893809      -0.57706093        1 
H      -3.63607909       2.41419279      -0.05331259        1 
H      -3.96952902       1.87349971       1.62811693        1 
C       2.19070070      -2.23587446       0.04334873        6 
H       3.21434309      -2.22460740      -0.34419400        1 
H       2.19020490      -2.78842359       0.99016686        1 
H       1.55025873      -2.75488606      -0.66688386        1 
C       1.23949752       2.25138163      -1.52660161        6 
H       2.17985422       2.31827421      -2.08290511        1 
H       0.43518880       1.96796110      -2.20564927        1 
H       1.01241491       3.23919039      -1.10997264        1 
