35
Lattice="0.0 0.0 0.0 0.0 0.0 0.0 0.0 0.0 0.0" Properties=species:S:1:pos:R:3:Z:I:1 pbc="F F F"
C       0.49193528       0.83554924       0.64978398        6 
C       0.03233172      -0.64608307       0.73393453        6 
C      -0.56771610       1.87859162       0.33880383        6 
C      -1.14034448      -0.96922798      -0.17030315        6 
O      -1.78986220       1.47058946       0.74916010        8 
O      -0.36001550       2.97413542      -0.13405367        8 
O      -1.88789745      -1.96586833       0.36195456        8 
O      -1.35963057      -0.47771291      -1.25482759        8 
C      -2.98146894      -2.40481216      -0.45988800        6 
C      -2.87125517       2.36904814       0.45497190        6 
C       1.77601914       0.73957366      -0.26709529        6 
C       2.93627582       0.35539043       0.68357682        6 
C       2.50306114      -1.07255084       1.11762076        6 
C       1.30974970      -1.35039147       0.15150579        6 
O       1.59234547      -0.50485095      -0.96727744        8 
H       0.82330421       1.13149586       1.65398339        1 
H      -0.19270705      -0.97144026       1.75101418        1 
H      -2.61279693      -2.81085321      -1.40663641        1 
H      -2.98446832       2.47447196      -0.62761338        1 
H       3.86844979       0.32621477       0.11158736        1 
H       3.06664751       1.05403207       1.51601985        1 
H       3.29972484      -1.80501409       0.95942280        1 
H       2.20097368      -1.13204953       2.16838806        1 
H      -3.49229167      -3.17734068       0.11627683        1 
H      -3.65701318      -1.57200469      -0.67487049        1 
H      -2.68926716       3.35324971       0.89483474        1 
H      -3.75956937       1.90905033       0.88956353        1 
C       1.14661497      -2.78921059      -0.29298664        6 
H       2.09671934      -3.16729387      -0.68304767        1 
H       0.83450590      -3.41871361       0.54646390        1 
H       0.39744090      -2.86863855      -1.08606692        1 
C       2.05302775       1.84578354      -1.25799210        6 
H       2.95830149       1.59900975      -1.82279317        1 
H       1.21726742       1.95280846      -1.95212682        1 
H       2.19090836       2.80194061      -0.74886291        1 
