35
Lattice="0.0 0.0 0.0 0.0 0.0 0.0 0.0 0.0 0.0" Properties=species:S:1:pos:R:3:Z:I:1 pbc="F F F"
C      -0.20906742       0.71591791       0.71790974        6 
C       0.77447483      -0.47265906       0.88565240        6 
C      -1.66690336       0.28816708       0.74397754        6 
C       0.37398431      -1.77879890       0.22015177        6 
O      -2.48494428       1.11140662       0.05947954        8 
O      -2.06940864      -0.63374378       1.42145394        8 
O      -0.54443402      -1.62952482      -0.75510572        8 
O       0.86753264      -2.84705341       0.51445313        8 
C      -0.95185774      -2.84193481      -1.40645010        6 
C      -3.88406750       0.78745801       0.14502358        6 
C       0.46597496       1.54554840      -0.44937656        6 
C       1.49556057       2.46354606       0.25320007        6 
C       2.48081884       1.40956747       0.82660081        6 
C       2.01034858       0.10415015       0.11016609        6 
O       1.35448748       0.59584063      -1.07074667        8 
H      -0.14520741       1.32285903       1.63063116        1 
H       1.00252496      -0.70606269       1.92664244        1 
H      -1.42892339      -3.51487271      -0.68838973        1 
H      -4.22129861       0.81247485       1.18480211        1 
H       1.98442733       3.09009947      -0.49896303        1 
H       1.05172123       3.11785805       1.01057375        1 
H       3.51868299       1.63610964       0.56676923        1 
H       2.42670439       1.31561566       1.91622128        1 
H      -1.66024721      -2.53619440      -2.17729005        1 
H      -0.09070739      -3.34700599      -1.85218428        1 
H      -4.06936446      -0.21029963      -0.26234091        1 
H      -4.39629706       1.54664321      -0.44702430        1 
C       3.12119521      -0.85887585      -0.25192074        6 
H       3.88563738      -0.33040516      -0.83025885        1 
H       3.58158371      -1.26533712       0.65405734        1 
H       2.74988368      -1.69739269      -0.84498270        1 
C      -0.39235469       2.19824266      -1.50957563        6 
H       0.26225288       2.67213560      -2.24834800        1 
H      -1.01635526       1.45534916      -2.00989042        1 
H      -1.04587522       2.95585150      -1.07116836        1 
