35
Lattice="0.0 0.0 0.0 0.0 0.0 0.0 0.0 0.0 0.0" Properties=species:S:1:pos:R:3:Z:I:1 pbc="F F F"
C      -0.02255353       0.90402060       0.63724757        6 
C       0.55271477      -0.53932606       0.85543840        6 
C      -1.33221339       1.00930142      -0.13344021        6 
C      -0.30781094      -1.77213215       0.66142842        6 
O      -2.33894342       1.32401990       0.72315962        8 
O      -1.49202813       0.92046496      -1.32822415        8 
O      -1.14316739      -1.70277772      -0.38885710        8 
O      -0.20160969      -2.75701457       1.36455724        8 
C      -1.93384355      -2.87702416      -0.63465216        6 
C      -3.63289957       1.44712340       0.11175391        6 
C       1.16415506       1.54856222      -0.16135550        6 
C       2.39784535       1.62503300       0.79355592        6 
C       2.95008727       0.17608789       0.72399324        6 
C       1.83226287      -0.51906725      -0.08519098        6 
O       1.51329325       0.48154289      -1.05518067        8 
H      -0.17648196       1.39152577       1.60208719        1 
H       0.88226507      -0.63483000       1.89171927        1 
H      -2.54344392      -3.11891821       0.24039331        1 
H      -3.90983196       0.51438684      -0.38844429        1 
H       3.12332780       2.35137729       0.41654369        1 
H       2.11662545       1.93281875       1.80583401        1 
H       3.88271829       0.13618646       0.15279222        1 
H       3.12618790      -0.28321049       1.70120006        1 
H      -2.56123411      -2.62743176      -1.49054071        1 
H      -1.28847274      -3.73011574      -0.86250012        1 
H      -3.63538551       2.25423345      -0.62678531        1 
H      -4.32456023       1.66780801       0.92578120        1 
C       2.19075684      -1.82401868      -0.76029929        6 
H       3.08467067      -1.69166780      -1.37710114        1 
H       2.38270979      -2.60139228      -0.01453374        1 
H       1.36946936      -2.15079943      -1.40472913        1 
C       0.87882748       2.82467499      -0.92694310        6 
H       1.78330807       3.14532792      -1.45318725        1 
H       0.08452131       2.66834880      -1.65746395        1 
H       0.58085499       3.62249536      -0.23678649        1 
