35
Lattice="0.0 0.0 0.0 0.0 0.0 0.0 0.0 0.0 0.0" Properties=species:S:1:pos:R:3:Z:I:1 pbc="F F F"
C       0.49598766       0.78938302       0.66458387        6 
C       0.02800690      -0.69004382       0.72392090        6 
C      -0.50728209       1.90312838       0.42372151        6 
C      -1.15986312      -1.03304356      -0.15673752        6 
O      -1.78716276       1.48562132       0.42801935        8 
O      -0.19000143       3.06808911       0.29996867        8 
O      -1.99190163      -1.88369710       0.49533761        8 
O      -1.32619213      -0.68974269      -1.30436908        8 
C      -3.11740053      -2.33355044      -0.27526921        6 
C      -2.77413570       2.50584204       0.20521548        6 
C       1.76133501       0.70680723      -0.29095675        6 
C       2.94462669       0.31635202       0.62563098        6 
C       2.51311187      -1.11233838       1.06121265        6 
C       1.30064114      -1.38355260       0.11546449        6 
O       1.56265194      -0.52632331      -0.99963905        8 
H       0.87236353       1.04777960       1.66194979        1 
H      -0.17621782      -1.02180665       1.74352182        1 
H      -2.78456482      -2.87565522      -1.16535934        1 
H      -2.59981786       2.99773249      -0.75525328        1 
H       3.86218333       0.28641108       0.03030664        1 
H       3.09764097       1.00944318       1.45868281        1 
H       3.30357899      -1.84728126       0.88475428        1 
H       2.23118202      -1.17517439       2.11746917        1 
H      -3.68419944      -2.99080031       0.38549260        1 
H      -3.72890322      -1.48363025      -0.59193488        1 
H      -2.74046089       3.25538412       1.00113400        1 
H      -3.73298926       1.98672049       0.20320064        1 
C       1.13369199      -2.81930151      -0.33746508        6 
H       2.07448737      -3.18836662      -0.75754301        1 
H       0.85214113      -3.45800589       0.50637796        1 
H       0.36315274      -2.89494158      -1.10991774        1 
C       1.98985233       1.83434446      -1.26839027        6 
H       2.86851581       1.60837690      -1.88120145        1 
H       1.12330593       1.94601491      -1.92547828        1 
H       2.14221162       2.77933193      -0.74354070        1 
