35
Lattice="0.0 0.0 0.0 0.0 0.0 0.0 0.0 0.0 0.0" Properties=species:S:1:pos:R:3:Z:I:1 pbc="F F F"
C      -0.73810998       0.15237969      -0.92581554        6 
C       0.64384046      -0.50928447      -0.63613133        6 
C      -0.84883889       1.47285051      -0.13353424        6 
C       1.83563015       0.43674383      -0.71157612        6 
O      -2.07953044       1.72123091       0.34901775        8 
O       0.08598007       2.20781781       0.10476733        8 
O       2.75818869       0.23403879       0.25104819        8 
O       2.01764447       1.15639841      -1.66821732        8 
C       3.93177478       1.05783048       0.13885547        6 
C      -2.19972104       2.91329341       1.14413192        6 
C      -1.65085000      -0.98345726      -0.33645092        6 
C      -1.29175835      -2.35126181      -1.02022912        6 
C      -0.06474823      -2.82392787      -0.19704016        6 
C       0.29102031      -1.51244377       0.53359467        6 
O      -1.02786743      -1.09621099       0.96164270        8 
H      -0.88644274       0.35439248      -1.99079205        1 
H       0.86786927      -1.12233963      -1.51792987        1 
H       3.65608439       2.11485830       0.18013446        1 
H      -1.92754370       3.79603689       0.55959010        1 
H      -2.12953790      -3.04761643      -0.93503212        1 
H      -1.07675781      -2.23076603      -2.08736688        1 
H      -0.34789620      -3.58385900       0.53813918        1 
H       0.75469051      -3.21944427      -0.80624704        1 
H       4.56019553       0.78819500       0.98868899        1 
H       4.44957892       0.86280421      -0.80449820        1 
H      -1.54784553       2.85064262       2.01942369        1 
H      -3.24734733       2.95575554       1.44432606        1 
C       1.19286484      -1.62261200       1.74090469        6 
H       0.73890658      -2.31393538       2.45871683        1 
H       2.18066109      -1.99481292       1.45892846        1 
H       1.32253287      -0.64791693       2.21533373        1 
C      -3.15456890      -0.80343760      -0.22547967        6 
H      -3.59144332      -1.71826140       0.18796016        1 
H      -3.42623776       0.03389634       0.41032243        1 
H      -3.58351672      -0.64195816      -1.22119993        1 
