35
Lattice="0.0 0.0 0.0 0.0 0.0 0.0 0.0 0.0 0.0" Properties=species:S:1:pos:R:3:Z:I:1 pbc="F F F"
C      -0.83906461       0.24934060      -0.89883412        6 
C       0.44804814      -0.63282362      -0.71811995        6 
C      -0.55526153       1.72042349      -0.60972292        6 
C       1.66400811       0.06533329      -0.14583971        6 
O      -0.98642213       2.15659796       0.58231798        8 
O       0.01963525       2.41972895      -1.41806112        8 
O       2.79218630      -0.51361610      -0.61739573        8 
O       1.67089872       0.95421936       0.67842398        8 
C       4.01643867       0.00545375      -0.07044991        6 
C      -0.55507107       3.48169629       0.93349695        6 
C      -1.87527769      -0.54809264      -0.04439944        6 
C      -2.19110508      -1.86364588      -0.82328621        6 
C      -0.93576081      -2.72494696      -0.53005538        6 
C      -0.07848933      -1.73394664       0.29218281        6 
O      -1.06519900      -1.02326774       1.04619807        8 
H      -1.12347682       0.24240014      -1.95449332        1 
H       0.74776078      -1.09675929      -1.65896694        1 
H       4.04641646      -0.14656733       1.01249574        1 
H      -0.89979164       4.21023511       0.19451457        1 
H      -3.09391430      -2.32661348      -0.41480030        1 
H      -2.36213363      -1.68767888      -1.88997376        1 
H      -1.18572009      -3.59014337       0.09167788        1 
H      -0.42469230      -3.08869126      -1.42645136        1 
H       4.81558370      -0.55207039      -0.55990599        1 
H       4.10501992       1.07472289      -0.28053548        1 
H       0.53618853       3.50375905       0.98805793        1 
H      -0.99573779       3.68195284       1.91065158        1 
C       0.94731714      -2.35669524       1.21512256        6 
H       0.46054398      -3.09226159       1.86258403        1 
H       1.73121086      -2.85596774       0.63762962        1 
H       1.40674221      -1.59137992       1.84742944        1 
C      -3.11270260       0.16641466       0.46092899        6 
H      -3.74980220      -0.54380272       0.99754889        1 
H      -2.85044602       0.98411944       1.12970097        1 
H      -3.68404783       0.56975101      -0.38283398        1 
