35
Lattice="0.0 0.0 0.0 0.0 0.0 0.0 0.0 0.0 0.0" Properties=species:S:1:pos:R:3:Z:I:1 pbc="F F F"
C      -0.36531758       0.64483604      -0.82468348        6 
C      -0.09327738      -0.85735844      -0.52428574        6 
C       0.40923933       1.64931697       0.03664418        6 
C       1.34466536      -1.30007399      -0.33430910        6 
O       1.47038268       1.11940485       0.67505751        8 
O       0.15551219       2.83477675       0.07942173        8 
O       2.13740408      -0.67166947      -1.23447695        8 
O       1.74978612      -2.14543985       0.43213081        8 
C       3.53401663      -0.98058452      -1.13243565        6 
C       2.22159623       2.03371159       1.49045189        6 
C      -1.87097259       0.68813187      -0.34995994        6 
C      -2.70241953      -0.38422784      -1.13308348        6 
C      -2.41193465      -1.68000722      -0.32739480        6 
C      -1.21384952      -1.21149542       0.52428530        6 
O      -1.69666157       0.08288665       0.94936918        8 
H      -0.21910989       0.91286101      -1.87391419        1 
H      -0.34166446      -1.38671095      -1.45503586        1 
H       3.70858951      -2.05260867      -1.26058780        1 
H       1.58415343       2.46501086       2.26693811        1 
H      -3.76416971      -0.12551397      -1.12122133        1 
H      -2.39520969      -0.45198970      -2.18239672        1 
H      -3.24832492      -1.93141823       0.33226146        1 
H      -2.18903590      -2.55207091      -0.95114089        1 
H       4.02032805      -0.41322727      -1.92695757        1 
H       3.91601314      -0.67455302      -0.15368947        1 
H       2.63029124       2.84092193       0.87666757        1 
H       3.01994477       1.43783812       1.93351226        1 
C      -0.85938251      -2.04818206       1.73102045        6 
H      -1.74323386      -2.13942481       2.37118896        1 
H      -0.52479766      -3.04281844       1.42907770        1 
H      -0.05070144      -1.58281920       2.29788167        1 
C      -2.58647474       2.01970766      -0.23435211        6 
H      -3.60241715       1.84216438       0.13347137        1 
H      -2.07606130       2.70083624       0.44335299        1 
H      -2.65058723       2.49926043      -1.21670312        1 
