35
Lattice="0.0 0.0 0.0 0.0 0.0 0.0 0.0 0.0 0.0" Properties=species:S:1:pos:R:3:Z:I:1 pbc="F F F"
C      -0.78427013       0.17101298      -0.94022913        6 
C       0.56369101      -0.50035189      -0.57172985        6 
C      -1.12152967       1.55309285      -0.40198722        6 
C       1.81248438       0.34420142      -0.36966933        6 
O      -0.62646854       1.79709904       0.81640061        8 
O      -1.81657966       2.33584134      -1.02055925        8 
O       2.89192928      -0.41289979      -0.71388389        8 
O       1.91909329       1.49577079      -0.01719327        8 
C       4.16335963       0.23805035      -0.56017852        6 
C      -0.89118983       3.10753973       1.33556515        6 
C      -1.75553743      -0.85793262      -0.23260724        6 
C      -1.55237085      -2.27115048      -0.86722930        6 
C      -0.30093993      -2.79025717      -0.10598851        6 
C       0.15251841      -1.49268108       0.59682445        6 
O      -1.11042541      -0.98315442       1.04446495        8 
H      -0.94951736       0.21396056      -2.01820556        1 
H       0.83935397      -1.12503746      -1.42600728        1 
H       4.32333413       0.53229315       0.48128068        1 
H      -1.96802813       3.27720116       1.42696441        1 
H      -2.42896580      -2.89987285      -0.68734603        1 
H      -1.40437107      -2.21353581      -1.95051075        1 
H      -0.57582607      -3.52944390       0.65308159        1 
H       0.46475963      -3.22821842      -0.75374273        1 
H       4.90819700      -0.49555029      -0.87094469        1 
H       4.21513174       1.13123581      -1.18926643        1 
H      -0.46426128       3.86800164       0.67593724        1 
H      -0.41102342       3.13525907       2.31383333        1 
C       1.11880540      -1.61809219       1.75098362        6 
H       0.70835623      -2.28795257       2.51294662        1 
H       2.07606272      -2.01909145       1.40412654        1 
H       1.29092797      -0.63645117       2.20348062        1 
C      -3.19690914      -0.42569105      -0.06724524        6 
H      -3.76106526      -1.20928892       0.44792215        1 
H      -3.26786470       0.49345478       0.51948418        1 
H      -3.65439872      -0.24318761      -1.04450589        1 
