35
Lattice="0.0 0.0 0.0 0.0 0.0 0.0 0.0 0.0 0.0" Properties=species:S:1:pos:R:3:Z:I:1 pbc="F F F"
C      -0.95308930      -0.09200999      -0.66880661        6 
C       0.60123445      -0.27338840      -0.69130814        6 
C      -1.42976555       1.13357164       0.10642199        6 
C       1.44225270       0.89774462      -0.21820131        6 
O      -1.65358182       2.15325805      -0.75519476        8 
O      -1.64186698       1.20201499       1.29486084        8 
O       2.74558210       0.65886304      -0.49947950        8 
O       1.06522821       1.91366383       0.32273308        8 
C       3.66296562       1.67593085      -0.06251042        6 
C      -1.97411029       3.40416837      -0.12720298        6 
C      -1.39144331      -1.44058735      -0.01461883        6 
C      -1.05905961      -2.59172690      -1.01557984        6 
C       0.46605938      -2.77672229      -0.80113172        6 
C       0.77276659      -1.60559830       0.16269873        6 
O      -0.38693201      -1.60256882       0.99913623        8 
H      -1.33355686       0.00613343      -1.68874846        1 
H       0.94330925      -0.47030439      -1.71139525        1 
H       3.60976257       1.79794968       1.02311576        1 
H      -1.14431637       3.71874832       0.51149375        1 
H      -1.61305405      -3.49436902      -0.74306645        1 
H      -1.32808246      -2.33667446      -2.04546686        1 
H       0.68253323      -3.72261006      -0.29486591        1 
H       1.05658711      -2.74154973      -1.72177896        1 
H       4.65134635       1.32704829      -0.36309771        1 
H       3.42960827       2.63295721      -0.53745989        1 
H      -2.88051555       3.31242406       0.47805815        1 
H      -2.12617373       4.11295042      -0.94263042        1 
C       2.01487726      -1.75433883       1.01363098        6 
H       1.94997493      -2.69017525       1.57726260        1 
H       2.91476392      -1.76949991       0.39440744        1 
H       2.09573406      -0.92896553       1.72749643        1 
C      -2.78313938      -1.51433019       0.57964039        6 
H      -2.94472624      -2.50801900       1.00947974        1 
H      -2.91174049      -0.76465110       1.36000241        1 
H      -3.53471305      -1.35219959      -0.20173628        1 
