35
Lattice="0.0 0.0 0.0 0.0 0.0 0.0 0.0 0.0 0.0" Properties=species:S:1:pos:R:3:Z:I:1 pbc="F F F"
C      -0.31606053       0.58293063      -0.87640674        6 
C      -0.22107580      -0.96986106      -0.57084064        6 
C       0.90419235       1.34142023      -0.36725920        6 
C       1.15316390      -1.37716243      -0.06434279        6 
O       0.82635948       1.65293234       0.94107016        8 
O       1.85642679       1.62531060      -1.06337178        8 
O       2.03085895      -1.28440792      -1.08694995        8 
O       1.47611396      -1.67178384       1.06585245        8 
C       3.41490339      -1.44486519      -0.74140146        6 
C       1.99712604       2.27282778       1.49742115        6 
C      -1.69092178       0.90959565      -0.21568279        6 
C      -2.79352966       0.21793845      -1.07468329        6 
C      -2.69729341      -1.25245874      -0.59454482        6 
C      -1.46941298      -1.18694484       0.35197303        6 
O      -1.65621286       0.09922485       0.96915830        8 
H      -0.32347914       0.75487258      -1.95414074        1 
H      -0.35003690      -1.51070699      -1.51346361        1 
H       3.58567639      -2.41044814      -0.25788788        1 
H       2.25723836       3.17747518       0.94151996        1 
H      -3.77051456       0.65193751      -0.84360451        1 
H      -2.62211676       0.34043147      -2.14882771        1 
H      -3.57978400      -1.53668852      -0.01348904        1 
H      -2.57933915      -1.97872506      -1.40509720        1 
H       3.95951577      -1.37899050      -1.68337630        1 
H       3.72668562      -0.64167807      -0.06777780        1 
H       2.84068621       1.57688741       1.46515118        1 
H       1.73851656       2.50844018       2.52980228        1 
C      -1.41048416      -2.27759078       1.40120584        6 
H      -2.36533957      -2.31667468       1.93496311        1 
H      -1.23618885      -3.25102746       0.92951554        1 
H      -0.60345352      -2.08948829       2.10787871        1 
C      -1.98625060       2.35926340       0.11368507        6 
H      -2.97091951       2.43193738       0.58603079        1 
H      -1.24125829       2.77101846       0.79486655        1 
H      -2.00007622       2.95776804      -0.80426575        1 
