35
Lattice="0.0 0.0 0.0 0.0 0.0 0.0 0.0 0.0 0.0" Properties=species:S:1:pos:R:3:Z:I:1 pbc="F F F"
C       0.47257365       0.88986197       0.62775611        6 
C       0.03311660      -0.60205021       0.73808999        6 
C      -0.62785925       1.84990569       0.20150197        6 
C      -1.16498501      -0.94908293      -0.12210074        6 
O      -1.74245650       1.59641892       0.93338732        8 
O      -0.54526681       2.76552302      -0.58346316        8 
O      -1.74928746      -2.08518651       0.32499660        8 
O      -1.52729373      -0.36412455      -1.11927480        8 
C      -2.83789893      -2.56682869      -0.48089959        6 
C      -2.90000800       2.36221181       0.56514706        6 
C       1.78545986       0.79090512      -0.22959675        6 
C       2.90912265       0.38445661       0.75950071        6 
C       2.49256675      -1.06674579       1.11887561        6 
C       1.30640015      -1.30744217       0.13884867        6 
O       1.60700982      -0.43940362      -0.95862251        8 
H       0.72919527       1.23898066       1.63590142        1 
H      -0.16306551      -0.92068382       1.76340370        1 
H      -2.49496594      -2.78959871      -1.49547535        1 
H      -3.19808649       2.11314694      -0.45749910        1 
H       3.86808111       0.39664627       0.23327508        1 
H       2.98528684       1.05321653       1.62234603        1 
H       3.29750923      -1.77887974       0.91504599        1 
H       2.19554600      -1.19194426       2.16506301        1 
H      -3.19143776      -3.47237336       0.01334702        1 
H      -3.63465995      -1.81950711      -0.53466922        1 
H      -2.69451568       3.43400291       0.62992155        1 
H      -3.67958719       2.07545549       1.27245355        1 
C       1.14680425      -2.73437617      -0.34480161        6 
H       2.10275293      -3.09648390      -0.73564415        1 
H       0.82829582      -3.38685126       0.47367848        1 
H       0.40538195      -2.79749684      -1.14600489        1 
C       2.13432543       1.90959017      -1.18691840        6 
H       3.09002441       1.67942160      -1.66948458        1 
H       1.36130288       2.02186256      -1.94685479        1 
H       2.22214235       2.86148018      -0.65600012        1 
