35
Lattice="0.0 0.0 0.0 0.0 0.0 0.0 0.0 0.0 0.0" Properties=species:S:1:pos:R:3:Z:I:1 pbc="F F F"
C      -0.35956472       0.65827771      -0.80510855        6 
C      -0.09468376      -0.84670409      -0.50359419        6 
C       0.40310791       1.65573023       0.08317940        6 
C       1.33479589      -1.32130026      -0.33037501        6 
O       1.56358485       1.17060612       0.56723938        8 
O       0.07080388       2.80834167       0.25979723        8 
O       2.13204882      -0.71490402      -1.23990455        8 
O       1.72786494      -2.17190636       0.43720909        8 
C       3.52288152      -1.05057443      -1.14771062        6 
C       2.31471822       2.07637360       1.39274312        6 
C      -1.87595101       0.69111823      -0.36466203        6 
C      -2.68480965      -0.39657130      -1.15354383        6 
C      -2.40704306      -1.68216220      -0.32678039        6 
C      -1.22365069      -1.19882580       0.53610909        6 
O      -1.72018124       0.09617230       0.94305155        8 
H      -0.18343717       0.92431064      -1.85078550        1 
H      -0.35000257      -1.36660335      -1.43813244        1 
H       3.67577544      -2.12649174      -1.27050538        1 
H       1.71497169       2.40430659       2.24588659        1 
H      -3.74754554      -0.14269814      -1.16757764        1 
H      -2.35586677      -0.47495287      -2.19552923        1 
H      -3.25361454      -1.92590519       0.32270958        1 
H      -2.17252581      -2.56199773      -0.93532887        1 
H       4.01327329      -0.49750975      -1.94977175        1 
H       3.91868032      -0.74538705      -0.17419798        1 
H       2.61897030       2.95334233       0.81476860        1 
H       3.18421842       1.50969362       1.72686101        1 
C      -0.87636721      -2.02112996       1.75469699        6 
H      -1.76452502      -2.10597606       2.38967539        1 
H      -0.53790082      -3.01843611       1.46654925        1 
H      -0.07247735      -1.54846592       2.32294388        1 
C      -2.61694427       2.01182957      -0.27747935        6 
H      -3.64135711       1.81840330       0.05762712        1 
H      -2.13895579       2.70377056       0.41135128        1 
H      -2.65928973       2.48395676      -1.26503733        1 
