35
Lattice="0.0 0.0 0.0 0.0 0.0 0.0 0.0 0.0 0.0" Properties=species:S:1:pos:R:3:Z:I:1 pbc="F F F"
C      -0.47316783       0.57659417       0.67715826        6 
C       0.85045928      -0.20087638       0.92027125        6 
C      -1.72632936      -0.26116421       0.49200528        6 
C       0.91455175      -1.63365723       0.41255410        6 
O      -2.80538073       0.54586892       0.35518967        8 
O      -1.81717310      -1.46747126       0.55686010        8 
O       0.51921117      -1.75256528      -0.86906054        8 
O       1.33708301      -2.55475953       1.07839945        8 
C       0.43401795      -3.09950269      -1.35489365        6 
C      -4.06741440      -0.13189315       0.23092767        6 
C      -0.05159179       1.61132682      -0.45168998        6 
C       0.62142977       2.79153278       0.29122610        6 
C       1.90523649       2.10341895       0.83250212        6 
C       1.84670154       0.71354459       0.12739969        6 
O       1.08876930       0.99013478      -1.05832813        8 
H      -0.70601798       1.15633455       1.57809998        1 
H       1.10441264      -0.25495096       1.98031477        1 
H      -0.31923752      -3.65080504      -0.78461779        1 
H      -4.26650967      -0.73786504       1.11928757        1 
H       0.86953147       3.57372001      -0.43268731        1 
H      -0.01110904       3.23201472       1.06787735        1 
H       2.80856147       2.64208500       0.53240052        1 
H       1.91982034       2.00970662       1.92309377        1 
H       0.13672138      -3.01471929      -2.40100739        1 
H       1.39758521      -3.60951834      -1.26816320        1 
H      -4.06970835      -0.78256746      -0.64811137        1 
H      -4.81346024       0.65664982       0.12657897        1 
C       3.18660635       0.10252582      -0.22323960        6 
H       3.78813659       0.82156867      -0.78810941        1 
H       3.73093868      -0.17417216       0.68554583        1 
H       3.05605616      -0.79295321      -0.83689966        1 
C      -1.06217991       1.96903878      -1.51811411        6 
H      -0.58711302       2.62302299      -2.25619076        1 
H      -1.41428939       1.06817463      -2.02916242        1 
H      -1.92524034       2.48077204      -1.08647568        1 
