35
Lattice="0.0 0.0 0.0 0.0 0.0 0.0 0.0 0.0 0.0" Properties=species:S:1:pos:R:3:Z:I:1 pbc="F F F"
C       0.29181867       0.81607799       0.66618156        6 
C       0.21328778      -0.75833844       0.62495500        6 
C      -0.77440612       1.47988737      -0.19389706        6 
C      -1.07445509      -1.29217810       0.03347666        6 
O      -1.82874001       1.83143264       0.58777843        8 
O      -0.73015931       1.70010734      -1.38015704        8 
O      -1.83215179      -1.87652927       0.99326979        8 
O      -1.42002251      -1.21585111      -1.12544015        8 
C      -3.09977753      -2.38078904       0.54005709        6 
C      -2.94754829       2.38488973      -0.12699723        6 
C       1.73825835       1.03144854       0.11620051        6 
C       2.73338729       0.45859554       1.17294047        6 
C       2.67605280      -1.06327856       0.87544951        6 
C       1.52954308      -1.11787551      -0.16415894        6 
O       1.79218070       0.05847133      -0.93701773        8 
H       0.17098421       1.17709370       1.68944954        1 
H       0.27176714      -1.14391212       1.64437564        1 
H      -2.95675030      -3.14825891      -0.22598728        1 
H      -3.32410853       1.66291771      -0.85771612        1 
H       3.73457280       0.86534566       1.00469237        1 
H       2.44067716       0.71153868       2.19722925        1 
H       3.60037487      -1.40836455       0.40234478        1 
H       2.49324922      -1.68276804       1.75915245        1 
H      -3.58183991      -2.80151883       1.42309860        1 
H      -3.70359602      -1.57222912       0.11789173        1 
H      -2.65534076       3.29793079      -0.65321754        1 
H      -3.70276863       2.60044431       0.62989673        1 
C       1.49102724      -2.34313731      -1.05128928        6 
H       2.46405103      -2.47836899      -1.53345467        1 
H       1.27039667      -3.23795855      -0.45790808        1 
H       0.72491144      -2.23129795      -1.82078395        1 
C       2.08890496       2.41139495      -0.40142386        6 
H       3.11917660       2.41120165      -0.77090517        1 
H       1.42396091       2.70044749      -1.21599393        1 
H       2.01254398       3.14949108       0.40545294        1 
