35
Lattice="0.0 0.0 0.0 0.0 0.0 0.0 0.0 0.0 0.0" Properties=species:S:1:pos:R:3:Z:I:1 pbc="F F F"
C      -0.75838563      -0.11908262      -0.78225031        6 
C       0.78325149      -0.36707402      -0.78578784        6 
C      -1.16118321       1.12177447      -0.00669830        6 
C       1.55357820       0.94536874      -0.69650578        6 
O      -2.44832531       1.43991825      -0.27233971        8 
O      -0.48461779       1.71300816       0.80602447        8 
O       2.50422913       0.99169501       0.24892374        8 
O       1.35411356       1.83947243      -1.49257778        8 
C       3.18422440       2.25469395       0.35656336        6 
C      -2.97263953       2.54809533       0.47789489        6 
C      -1.23825513      -1.39640674       0.00059201        6 
C      -0.91112865      -2.64194356      -0.87771125        6 
C       0.60146991      -2.83927382      -0.59521442        6 
C       0.92787352      -1.56456031       0.22704733        6 
O      -0.25573916      -1.46025459       1.04212307        8 
H      -1.19112704      -0.06671756      -1.78294417        1 
H       1.05470562      -0.72681396      -1.78451117        1 
H       2.46395311       3.04336255       0.58880225        1 
H      -2.38526743       3.45054233       0.28813503        1 
H      -1.49964808      -3.50256847      -0.54696879        1 
H      -1.13836258      -2.47143639      -1.93483808        1 
H       0.77210259      -3.72063191       0.03019934        1 
H       1.21224057      -2.93949405      -1.49797472        1 
H       3.90050534       2.13122755       1.16947345        1 
H       3.69591815       2.49895610      -0.57854095        1 
H      -2.94967342       2.32930078       1.54957662        1 
H      -3.99933511       2.67595388       0.13320618        1 
C       2.14966502      -1.67362929       1.11377081        6 
H       2.08507455      -2.59785699       1.69747686        1 
H       3.06410631      -1.69816125       0.51369097        1 
H       2.21004888      -0.82439060       1.79399063        1 
C      -2.63122625      -1.38433959       0.59648732        6 
H      -2.82020932      -2.34040109       1.09472687        1 
H      -2.73754355      -0.58659541       1.33556424        1 
H      -3.38484532      -1.23383088      -0.18201240        1 
