35
Lattice="0.0 0.0 0.0 0.0 0.0 0.0 0.0 0.0 0.0" Properties=species:S:1:pos:R:3:Z:I:1 pbc="F F F"
C      -0.77055610       0.20098309      -0.94552748        6 
C       0.54372180      -0.54858272      -0.57984484        6 
C      -0.99827045       1.62234086      -0.45420002        6 
C       1.81554163       0.23056091      -0.28549578        6 
O      -0.64388243       1.81505983       0.82113222        8 
O      -1.49162088       2.48201504      -1.15837065        8 
O       2.86329795      -0.43647126      -0.84335360        8 
O       1.96350158       1.25327099       0.34348670        8 
C       4.15376718       0.14447289      -0.59626337        6 
C      -0.77426504       3.16036362       1.30062364        6 
C      -1.80077535      -0.75651334      -0.23298214        6 
C      -1.70941221      -2.17022957      -0.89047079        6 
C      -0.48091575      -2.78485183      -0.16399366        6 
C       0.06328693      -1.53720268       0.56692615        6 
O      -1.15613720      -0.94937059       1.03378208        8 
H      -0.92972285       0.23404289      -2.02487375        1 
H       0.80917210      -1.15960268      -1.44531398        1 
H       4.35024288       0.20375419       0.47821236        1 
H      -1.81391918       3.49479797       1.23870206        1 
H      -2.62240652      -2.74094986      -0.69744884        1 
H      -1.58139934      -2.10824772      -1.97592049        1 
H      -0.79017352      -3.52718450       0.57859769        1 
H       0.24665054      -3.25136800      -0.83528122        1 
H       4.87125929      -0.51686566      -1.08348264        1 
H       4.20905356       1.15163260      -1.01934957        1 
H      -0.14593766       3.83323690       0.71048708        1 
H      -0.43690345       3.13266659       2.33682354        1 
C       1.02296715      -1.76214313       1.71201675        6 
H       0.56704355      -2.41757672       2.46044483        1 
H       1.94432497      -2.22977565       1.34932560        1 
H       1.27385041      -0.80804624       2.18479932        1 
C      -3.20346834      -0.21713481      -0.04979351        6 
H      -3.82310665      -0.95816792       0.46471596        1 
H      -3.19412620       0.69789786       0.54831815        1 
H      -3.65517442       0.00742735      -1.02121091        1 
