35
Lattice="0.0 0.0 0.0 0.0 0.0 0.0 0.0 0.0 0.0" Properties=species:S:1:pos:R:3:Z:I:1 pbc="F F F"
C      -0.36348686       0.64236064      -0.89951388        6 
C      -0.23975695      -0.90222978      -0.67754795        6 
C       0.79519692       1.50388754      -0.42109954        6 
C       1.10966901      -1.53043384      -0.36446242        6 
O       0.97597600       1.43865003       0.91535866        8 
O       1.44128416       2.22618040      -1.14903687        8 
O       2.14923549      -0.69012507      -0.52184402        8 
O       1.24674905      -2.70153822      -0.07849136        8 
C       3.45152705      -1.26276044      -0.31639380        6 
C       2.08568424       2.20024387       1.40981869        6 
C      -1.69806721       0.92661158      -0.13223120        6 
C      -2.85575789       0.23094050      -0.91177056        6 
C      -2.71366818      -1.24204957      -0.44591979        6 
C      -1.39958929      -1.17413183       0.37090582        6 
O      -1.54730510       0.09546368       1.02602754        8 
H      -0.45627317       0.87423962      -1.96239394        1 
H      -0.51243861      -1.40531305      -1.61240458        1 
H       3.60902736      -2.10695559      -0.99302223        1 
H       1.97707959       3.25787390       1.15343347        1 
H      -3.81865463       0.65691418      -0.61517768        1 
H      -2.75701546       0.35571193      -1.99473108        1 
H      -3.53290616      -1.52565112       0.22168480        1 
H      -2.67862845      -1.96710021      -1.26507993        1 
H       4.15650258      -0.45869771      -0.52841623        1 
H       3.55527084      -1.61047905       0.71524047        1 
H       3.02089652       1.82830803       0.97965195        1 
H       2.07850041       2.06168115       2.49152943        1 
C      -1.20931748      -2.26494506       1.40051228        6 
H      -2.08506134      -2.28997426       2.05719231        1 
H      -1.08745681      -3.23750767       0.91948756        1 
H      -0.32118116      -2.07689749       2.00856493        1 
C      -1.96861578       2.36463313       0.25879651        6 
H      -2.91274542       2.42631860       0.80875967        1 
H      -1.17145569       2.75201761       0.89695220        1 
H      -2.04444209       2.99345450      -0.63481020        1 
