35
Lattice="0.0 0.0 0.0 0.0 0.0 0.0 0.0 0.0 0.0" Properties=species:S:1:pos:R:3:Z:I:1 pbc="F F F"
C      -0.42168635       0.56657586      -0.92532861        6 
C      -0.08613812      -0.93694287      -0.56106287        6 
C       0.70057070       1.48024335      -0.44458927        6 
C       1.32211513      -1.08947948      -0.01971899        6 
O       0.50872673       1.99353996       0.77798081        8 
O       1.70782971       1.65980878      -1.10080847        8 
O       2.14654295      -1.54528239      -0.98409216        8 
O       1.69652670      -0.79594203       1.09743632        8 
C       3.54332782      -1.54706007      -0.64185164        6 
C       1.65236530       2.65128446       1.35133707        6 
C      -1.82844529       0.70479899      -0.27052075        6 
C      -2.80597203      -0.21962098      -1.06403132        6 
C      -2.48211775      -1.61507342      -0.47191725        6 
C      -1.26266297      -1.28388053       0.42247350        6 
O      -1.64526931      -0.00858231       0.96293587        8 
H      -0.45082199       0.69066221      -2.01015343        1 
H      -0.14723509      -1.55114766      -1.46153880        1 
H       3.72202307      -2.15250952       0.25085385        1 
H       1.98274105       3.47813358       0.71715014        1 
H      -3.84072582       0.07382772      -0.86535254        1 
H      -2.64740456      -0.15767299      -2.14547042        1 
H      -3.29899385      -1.97607549       0.16021542        1 
H      -2.27101704      -2.38073598      -1.22483752        1 
H       4.05580185      -1.96973934      -1.50648122        1 
H       3.87720690      -0.52209369      -0.45829613        1 
H       2.46405948       1.92842354       1.46563775        1 
H       1.32006254       3.01423267       2.32398070        1 
C      -0.97714821      -2.27088850       1.53354259        6 
H      -1.88079697      -2.41793015       2.13364678        1 
H      -0.67939517      -3.23893384       1.11484939        1 
H      -0.17707915      -1.90320585       2.17757352        1 
C      -2.36801272       2.10152051      -0.03388107        6 
H      -3.34706274       2.03432840       0.45108573        1 
H      -1.70096625       2.68485536       0.60030443        1 
H      -2.49448221       2.61998497      -0.99118101        1 
