35
Lattice="0.0 0.0 0.0 0.0 0.0 0.0 0.0 0.0 0.0" Properties=species:S:1:pos:R:3:Z:I:1 pbc="F F F"
C      -0.48638041       0.53864897       0.60835003        6 
C       0.81749464      -0.22743452       0.92803828        6 
C      -1.77570343      -0.25599397       0.50081506        6 
C       1.00113920      -1.61219063       0.32672489        6 
O      -2.82602930       0.60690440       0.50487574        8 
O      -1.92062095      -1.45689524       0.53264561        8 
O       0.37753480      -1.77264196      -0.85038449        8 
O       1.68412756      -2.46769452       0.85257644        8 
C       0.45351681      -3.08986538      -1.41220341        6 
C      -4.12329604      -0.00895026       0.45048018        6 
C      -0.04199945       1.50768846      -0.56824939        6 
C       0.51512052       2.76641926       0.13324186        6 
C       1.74403256       2.15615663       0.86523044        6 
C       1.83978416       0.73867346       0.21472398        6 
O       1.17746020       0.92028950      -1.04661018        8 
H      -0.69911302       1.18113276       1.47076616        1 
H       1.00969875      -0.32092546       1.99827806        1 
H      -0.01121612      -3.81347955      -0.73651415        1 
H      -4.28128802      -0.64824017       1.32376534        1 
H       0.82586925       3.49147232      -0.62540844        1 
H      -0.20554519       3.25039467       0.80000636        1 
H       2.65663368       2.72772586       0.67358091        1 
H       1.61339693       2.09783777       1.95084402        1 
H      -0.09599972      -3.03784721      -2.35266754        1 
H       1.49354245      -3.37899280      -1.58827222        1 
H      -4.22414476      -0.61675588      -0.45333326        1 
H      -4.83876000       0.81415649       0.44100207        1 
C       3.24554275       0.21343466       0.01554950        6 
H       3.84686527       0.95865930      -0.51447206        1 
H       3.71303752       0.00351691       0.98255764        1 
H       3.24378870      -0.71059275      -0.56770203        1 
C      -1.00973571       1.70924887      -1.71014386        6 
H      -0.54829123       2.34002169      -2.47660456        1 
H      -1.26469874       0.74474181      -2.16069534        1 
H      -1.92832907       2.18528605      -1.35844372        1 
