35
Lattice="0.0 0.0 0.0 0.0 0.0 0.0 0.0 0.0 0.0" Properties=species:S:1:pos:R:3:Z:I:1 pbc="F F F"
C      -0.34966378       0.62064202      -0.88410205        6 
C      -0.24305885      -0.93068945      -0.65861883        6 
C       0.83815470       1.44802856      -0.42223772        6 
C       1.10952013      -1.49388312      -0.24089045        6 
O       1.02912357       1.36558134       0.91425895        8 
O       1.48983372       2.16737330      -1.14680673        8 
O       2.12307648      -0.75379123      -0.73728301        8 
O       1.28815203      -2.52248415       0.37363295        8 
C       3.44691335      -1.22863258      -0.44302808        6 
C       2.15672165       2.10173689       1.40931445        6 
C      -1.67733496       0.93622567      -0.11775785        6 
C      -2.84740843       0.32825809      -0.94321283        6 
C      -2.73889590      -1.17561184      -0.58303971        6 
C      -1.46495395      -1.19510204       0.30455382        6 
O      -1.58938813       0.05340787       1.00812604        8 
H      -0.44380153       0.85049108      -1.94695759        1 
H      -0.43014860      -1.43488548      -1.61502812        1 
H       3.59949306      -2.22401240      -0.86937608        1 
H       2.05439305       3.16646552       1.18143743        1 
H      -3.79889122       0.75322911      -0.60981223        1 
H      -2.75008250       0.53242533      -2.01415023        1 
H      -3.59509604      -1.49949626       0.01597082        1 
H      -2.66955718      -1.83665831      -1.45272779        1 
H       4.12080371      -0.50318781      -0.89909681        1 
H       3.60049547      -1.27852803       0.63850290        1 
H       3.08045279       1.73175839       0.95359779        1 
H       2.16596589       1.93553422       2.48702426        1 
C      -1.40224481      -2.33522281       1.29919946        6 
H      -2.33433115      -2.34851874       1.87366706        1 
H      -1.28255588      -3.29402060       0.78852679        1 
H      -0.56200289      -2.21288526       1.98269031        1 
C      -1.88744122       2.36867952       0.32737962        6 
H      -2.84114472       2.45435430       0.85727189        1 
H      -1.08827633       2.68873008       0.99922171        1 
H      -1.91002361       3.03650833      -0.54053075        1 
