35
Lattice="0.0 0.0 0.0 0.0 0.0 0.0 0.0 0.0 0.0" Properties=species:S:1:pos:R:3:Z:I:1 pbc="F F F"
C       0.06262239       0.61437462       0.71097879        6 
C       0.45123444      -0.90292466       0.66260245        6 
C      -1.27981192       1.00182503       0.13069408        6 
C      -0.56579501      -1.76863433      -0.07383360        6 
O      -1.68806696       2.17441315       0.67319943        8 
O      -1.90225512       0.42741791      -0.73590161        8 
O      -1.59767911      -2.03488717       0.76476918        8 
O      -0.48879424      -2.21093938      -1.19536465        8 
C      -2.71633312      -2.69169988       0.14666852        6 
C      -2.90590427       2.70657910       0.12494807        6 
C       1.25544772       1.26367550      -0.11339042        6 
C       2.45716630       1.35678782       0.85566432        6 
C       2.82554555      -0.14139322       1.01188633        6 
C       1.85916927      -0.82672454      -0.00429026        6 
O       1.65303191       0.20534597      -0.98686362        8 
H       0.08171287       0.98997257       1.73575338        1 
H       0.51017385      -1.29724556       1.68117728        1 
H      -2.41391507      -3.64905423      -0.28653617        1 
H      -3.72880941       1.99939019       0.26078362        1 
H       3.26580730       1.91691589       0.37569786        1 
H       2.21140475       1.85738469       1.79715926        1 
H       3.86325315      -0.33062570       0.72363417        1 
H       2.69068743      -0.51764471       2.03099949        1 
H      -3.44614388      -2.84316919       0.94344247        1 
H      -3.12666776      -2.05237686      -0.63977810        1 
H      -2.78813573       2.90908394      -0.94354394        1 
H      -3.09584116       3.62979388       0.67326561        1 
C       2.41974530      -2.08113438      -0.64373002        6 
H       3.41603825      -1.87025018      -1.04545920        1 
H       2.51272818      -2.87640359       0.10493292        1 
H       1.77200242      -2.42734981      -1.44757666        1 
C       0.93982813       2.51030477      -0.91185990        6 
H       1.83594604       2.83578977      -1.44869006        1 
H       0.15582263       2.30381255      -1.64707301        1 
H       0.60438377       3.31863872      -0.25568213        1 
