35
Lattice="0.0 0.0 0.0 0.0 0.0 0.0 0.0 0.0 0.0" Properties=species:S:1:pos:R:3:Z:I:1 pbc="F F F"
C       0.18125248       0.93778197       0.61258961        6 
C       0.37557128      -0.59553452       0.87648682        6 
C      -1.22052320       1.32102458       0.16313937        6 
C      -0.65748129      -1.54780169       0.30669020        6 
O      -2.10471567       0.89782874       1.10391178        8 
O      -1.55240913       1.95375924      -0.81188527        8 
O      -1.22652376      -1.09118440      -0.82609056        8 
O      -0.90666402      -2.63085790       0.79214373        8 
C      -2.19996907      -1.95746198      -1.42973507        6 
C      -3.48623241       1.12905597       0.78891960        6 
C       1.39075457       1.26428815      -0.33159210        6 
C       2.64303246       1.36504510       0.58196701        6 
C       2.85113107      -0.11502176       0.99596352        6 
C       1.75600467      -0.83144755       0.15738531        6 
O       1.62692606       0.00804677      -0.99568195        8 
H       0.30498626       1.46510496       1.56562125        1 
H       0.43695945      -0.83319297       1.93939996        1 
H      -3.03513204      -2.12857243      -0.74392135        1 
H      -3.75035801       0.62679168      -0.14665212        1 
H       3.48721343       1.72957197      -0.01058775        1 
H       2.50510308       2.04698688       1.42704621        1 
H       3.84176203      -0.47856244       0.70677975        1 
H       2.73188758      -0.29253954       2.06927715        1 
H      -2.53561725      -1.43519949      -2.32579820        1 
H      -1.74995886      -2.92042877      -1.68579246        1 
H      -3.68753225       2.19892279       0.68400949        1 
H      -4.05188797       0.71050218       1.62218475        1 
C       2.07360286      -2.25467359      -0.25140836        6 
H       3.05798101      -2.29020130      -0.72782562        1 
H       2.07419911      -2.91437568       0.62130717        1 
H       1.33363399      -2.63106194      -0.96301116        1 
C       1.25540874       2.37528342      -1.35176276        6 
H       2.20473234       2.48992555      -1.88519866        1 
H       0.46122745       2.15244630      -2.06260351        1 
H       1.01165790       3.32224004      -0.86002633        1 
