35
Lattice="0.0 0.0 0.0 0.0 0.0 0.0 0.0 0.0 0.0" Properties=species:S:1:pos:R:3:Z:I:1 pbc="F F F"
C      -0.03453674       0.63379596      -0.81138415        6 
C      -0.32284509      -0.87701419      -0.63101760        6 
C       1.05910555       1.22162098       0.06438090        6 
C       0.76946595      -1.92360511      -0.49466635        6 
O       1.39288758       2.45714001      -0.39728642        8 
O       1.48285048       0.77199035       1.10243280        8 
O       2.01243892      -1.44799485      -0.33741762        8 
O       0.51181756      -3.11135820      -0.54561440        8 
C       3.04116057      -2.44519238      -0.22120005        6 
C       2.31135022       3.18328548       0.43306207        6 
C      -1.40620614       1.18387347      -0.22108344        6 
C      -2.59456911       0.61057905      -1.06191024        6 
C      -2.79627860      -0.79194764      -0.42217646        6 
C      -1.50870396      -0.89542025       0.42291573        6 
O      -1.46973562       0.42348461       0.99194527        8 
H       0.11755790       0.92632902      -1.85233127        1 
H      -0.76784910      -1.20339477      -1.57844094        1 
H       3.09012661      -3.05695018      -1.12688425        1 
H       3.23396095       2.61420842       0.57716891        1 
H      -3.47974831       1.24228592      -0.94714740        1 
H      -2.35730841       0.56729301      -2.13010534        1 
H      -3.66556851      -0.80136723       0.24270346        1 
H      -2.90578368      -1.60196835      -1.14966974        1 
H       3.96791261      -1.88947283      -0.07711101        1 
H       2.84306932      -3.09600050       0.63446886        1 
H       1.86640118       3.38209081       1.41308302        1 
H       2.51200538       4.11686550      -0.09413472        1 
C      -1.46443775      -1.94124885       1.51031705        6 
H      -2.32265508      -1.81051441       2.17674922        1 
H      -1.48604884      -2.94479805       1.07921321        1 
H      -0.54648574      -1.83280710       2.09607975        1 
C      -1.51309455       2.66432372       0.08269920        6 
H      -2.50728017       2.87572612       0.48885957        1 
H      -0.77017045       2.97557475       0.81993970        1 
H      -1.36939860       3.25732440      -0.82544804        1 
