35
Lattice="0.0 0.0 0.0 0.0 0.0 0.0 0.0 0.0 0.0" Properties=species:S:1:pos:R:3:Z:I:1 pbc="F F F"
C       0.25985677       1.00167606       0.63051549        6 
C       0.36943213      -0.55926268       0.86123563        6 
C      -1.03778448       1.48555797      -0.01483337        6 
C      -0.90500035      -1.35604772       0.63701956        6 
O      -2.09998611       0.91489782       0.59494764        8 
O      -1.15885825       2.30024114      -0.90161025        8 
O      -1.14730079      -1.59322788      -0.67294971        8 
O      -1.58416987      -1.81086448       1.53050727        8 
C      -2.34233802      -2.34127256      -0.94365526        6 
C      -3.38992748       1.26959833       0.07229448        6 
C       1.56934916       1.26300617      -0.18697766        6 
C       2.76286223       1.04467833       0.79437414        6 
C       2.86670155      -0.49905314       0.83965185        6 
C       1.63411624      -0.91320069      -0.00430404        6 
O       1.62431881       0.09420048      -1.02551304        8 
H       0.29210373       1.51409492       1.59888648        1 
H       0.58166958      -0.73974087       1.91705969        1 
H      -3.21779982      -1.81843530      -0.54762204        1 
H      -3.45048916       1.02075952      -0.99096399        1 
H       3.67032114       1.49758442       0.38542501        1 
H       2.58017116       1.49765405       1.77412134        1 
H       3.77451484      -0.84708460       0.33817994        1 
H       2.85656289      -0.91786941       1.85040652        1 
H      -2.39960583      -2.42081175      -2.02975174        1 
H      -2.28821640      -3.33267911      -0.48494244        1 
H      -3.57467881       2.34023448       0.19689259        1 
H      -4.10509072       0.68344498       0.65004440        1 
C       1.72351125      -2.29993315      -0.60936219        6 
H       2.68986946      -2.42059842      -1.10884629        1 
H       1.64175460      -3.06263007       0.17340702        1 
H       0.92797894      -2.45804549      -1.33728109        1 
C       1.69473112       2.51884438      -1.02772515        6 
H       2.69332810       2.54471349      -1.47613531        1 
H       0.94388360       2.54649703      -1.81452891        1 
H       1.56966178       3.41076383      -0.40488643        1 
