35
Lattice="0.0 0.0 0.0 0.0 0.0 0.0 0.0 0.0 0.0" Properties=species:S:1:pos:R:3:Z:I:1 pbc="F F F"
C       0.13538729       0.69835214       0.64823742        6 
C       0.41340739      -0.84903811       0.68187444        6 
C      -1.19668087       1.09433874       0.05094858        6 
C      -0.61433201      -1.63797633      -0.12042016        6 
O      -1.88420133       1.89768674       0.89467010        8 
O      -1.61236240       0.77391207      -1.04279771        8 
O      -1.73401061      -1.78763975       0.63415600        8 
O      -0.49918105      -2.10010373      -1.22975103        8 
C      -2.84825149      -2.37850541      -0.05673056        6 
C      -3.16481751       2.33293162       0.40720751        6 
C       1.38059490       1.21610746      -0.17783300        6 
C       2.55014418       1.31070816       0.83022092        6 
C       2.80687790      -0.19123626       1.12069696        6 
C       1.85805008      -0.89074344       0.09587819        6 
O       1.75890532       0.08053057      -0.95988570        8 
H       0.16477782       1.10467268       1.66041290        1 
H       0.36704083      -1.21415691       1.71143128        1 
H      -2.60550202      -3.39311133      -0.38473233        1 
H      -3.81471284       1.47234208       0.22361559        1 
H       3.41143134       1.77223065       0.33742127        1 
H       2.30767528       1.90145626       1.71879716        1 
H       3.84492545      -0.47011176       0.91852054        1 
H       2.58352680      -0.47813953       2.15378116        1 
H      -3.66661721      -2.39378640       0.66455270        1 
H      -3.10851182      -1.77280302      -0.92921655        1 
H      -3.05173898       2.89363568      -0.52502782        1 
H      -3.57817156       2.96718872       1.19206751        1 
C       2.37476610      -2.21632082      -0.42608760        6 
H       3.39633596      -2.08835854      -0.79824023        1 
H       2.39496006      -2.95696478       0.38197104        1 
H       1.74333839      -2.58665917      -1.23254524        1 
C       1.15437204       2.42230341      -1.06296056        6 
H       2.08255441       2.68080673      -1.58142594        1 
H       0.38424440       2.20611550      -1.80722489        1 
H       0.83786430       3.28298141      -0.46288543        1 
