35
Lattice="0.0 0.0 0.0 0.0 0.0 0.0 0.0 0.0 0.0" Properties=species:S:1:pos:R:3:Z:I:1 pbc="F F F"
C       0.11076001       0.98540439       0.49370848        6 
C       0.22901409      -0.56222816       0.78967209        6 
C      -1.26283382       1.45506482       0.05350234        6 
C      -0.87830048      -1.36788609       0.09679649        6 
O      -2.07447093       1.52857687       1.12924366        8 
O      -1.62095185       1.70279165      -1.07737100        8 
O      -0.45036175      -2.42368395      -0.61459436        8 
O      -2.05863931      -1.11600613       0.22669919        8 
C      -1.48608834      -3.19086803      -1.25551172        6 
C      -3.46539693       1.71756689       0.82767559        6 
C       1.35422030       1.23244604      -0.43991070        6 
C       2.53447161       1.48218252       0.52532827        6 
C       2.62205018       0.10666694       1.22798134        6 
C       1.70261432      -0.78696206       0.32331999        6 
O       1.68222312      -0.08272966      -0.93108433        8 
H       0.27830034       1.49983544       1.44499344        1 
H       0.09145913      -0.75043888       1.85964404        1 
H      -2.05836814      -2.55874169      -1.93925011        1 
H      -3.82688896       0.86865509       0.24196153        1 
H       3.43635878       1.68777908      -0.05932067        1 
H       2.36640998       2.32169422       1.20750697        1 
H       3.64330885      -0.28323124       1.23766793        1 
H       2.27289434       0.13150933       2.26580952        1 
H      -0.96628297      -3.97943879      -1.80030129        1 
H      -2.16526022      -3.61594499      -0.51127945        1 
H      -3.62104278       2.64392985       0.26764134        1 
H      -3.97112981       1.76216458       1.79316835        1 
C       2.25429592      -2.19114042       0.15124852        6 
H       3.31842715      -2.12663998      -0.09751419        1 
H       2.15581092      -2.75649084       1.08509742        1 
H       1.74090909      -2.73225939      -0.63938057        1 
C       1.22735633       2.20570425      -1.59150880        6 
H       2.18731280       2.26841902      -2.11429454        1 
H       0.45118713       1.88711007      -2.28674630        1 
H       0.96333906       3.20224834      -1.22260105        1 
