35
Lattice="0.0 0.0 0.0 0.0 0.0 0.0 0.0 0.0 0.0" Properties=species:S:1:pos:R:3:Z:I:1 pbc="F F F"
C      -0.88297023       0.10431652      -0.90257987        6 
C       0.53742477      -0.53448643      -0.73798492        6 
C      -0.99466308       1.57604746      -0.52197029        6 
C       1.67717107       0.42071243      -0.42018933        6 
O      -0.94714649       1.77759112       0.81007245        8 
O      -1.17906153       2.45735929      -1.33251667        8 
O       2.83741435      -0.26363832      -0.29824526        8 
O       1.61899171       1.62679231      -0.32114947        8 
C       3.99735295       0.53928625      -0.01950264        6 
C      -0.90872159       3.15683452       1.20511755        6 
C      -1.74828317      -0.87324810      -0.04543083        6 
C      -1.78923989      -2.24622689      -0.78416527        6 
C      -0.40347140      -2.84360715      -0.42805146        6 
C       0.24395383      -1.66610231       0.34349223        6 
O      -0.87687392      -1.13801296       1.06368496        8 
H      -1.18463861       0.07779387      -1.95198028        1 
H       0.84088960      -1.01931191      -1.67138262        1 
H       3.88022124       1.06208858       0.93401890        1 
H      -1.78925968       3.69179352       0.83837958        1 
H      -2.60336437      -2.85869966      -0.38622501        1 
H      -1.95388695      -2.13246211      -1.86010971        1 
H      -0.50204526      -3.70159006       0.24388780        1 
H       0.18353352      -3.16019632      -1.29570327        1 
H       4.83268104      -0.16010284       0.02566313        1 
H       4.15152976       1.27752463      -0.81109743        1 
H      -0.00684448       3.62688741       0.80350499        1 
H      -0.88766608       3.14858013       2.29565659        1 
C       1.33106331      -2.05216030       1.32394600        6 
H       0.92853316      -2.79543973       2.01944907        1 
H       2.19581654      -2.47365110       0.80686719        1 
H       1.66380513      -1.18456109       1.89990486        1 
C      -3.10093936      -0.37746488       0.42224772        6 
H      -3.58433804      -1.14817991       1.03107165        1 
H      -3.00233881       0.52889276       1.02151066        1 
H      -3.74339496      -0.16513712      -0.43965771        1 
