35
Lattice="0.0 0.0 0.0 0.0 0.0 0.0 0.0 0.0 0.0" Properties=species:S:1:pos:R:3:Z:I:1 pbc="F F F"
C       0.13600858       0.88901947       0.58911405        6 
C       0.36293402      -0.62997801       0.85548130        6 
C      -1.29650365       1.30071179       0.30258305        6 
C      -0.54171858      -1.59782278       0.10862087        6 
O      -2.11232618       0.72797369       1.22403812        8 
O      -1.69090426       2.07863517      -0.53541281        8 
O      -1.29067262      -1.01329902      -0.84628743        8 
O      -0.57976909      -2.78662491       0.34754277        8 
C      -2.12846802      -1.89457566      -1.61028886        6 
C      -3.51048134       1.00025899       1.05015608        6 
C       1.27878363       1.22607095      -0.44202919        6 
C       2.52409873       1.53775753       0.41957709        6 
C       2.77012495       0.15842503       1.08591605        6 
C       1.81639022      -0.77084679       0.27016039        6 
O       1.64657110      -0.06642653      -0.97083862        8 
H       0.35261609       1.41219730       1.52930120        1 
H       0.30817638      -0.89812458       1.91248022        1 
H      -2.85938908      -2.38441619      -0.96036666        1 
H      -3.84974693       0.62946729       0.07803341        1 
H       3.35448255       1.81153882      -0.23834963        1 
H       2.36613163       2.35483052       1.13068739        1 
H       3.80748457      -0.16975363       0.97661597        1 
H       2.53189057       0.14584846       2.15478512        1 
H      -2.62534946      -1.25878551      -2.34342133        1 
H      -1.52466415      -2.65964083      -2.10549057        1 
H      -3.70841094       2.07437046       1.10623391        1 
H      -4.01656086       0.47219501       1.85928340        1 
C       2.35422561      -2.16597497       0.02852331        6 
H       3.35686306      -2.09429302      -0.40452211        1 
H       2.41426693      -2.71856412       0.97116161        1 
H       1.71707283      -2.73260398      -0.65244856        1 
C       0.99631416       2.18112980      -1.57951762        6 
H       1.90036139       2.28331030      -2.18939467        1 
H       0.18065565       1.80953132      -2.20071369        1 
H       0.70658451       3.16406489      -1.19990193        1 
