35
Lattice="0.0 0.0 0.0 0.0 0.0 0.0 0.0 0.0 0.0" Properties=species:S:1:pos:R:3:Z:I:1 pbc="F F F"
C      -0.35743002       0.63496103      -0.85683142        6 
C      -0.11748046      -0.87543121      -0.57442979        6 
C       0.49770014       1.61192230      -0.05736602        6 
C       1.31919746      -1.30618650      -0.34566766        6 
O       1.30962335       1.01920475       0.83943241        8 
O       0.46173471       2.81330008      -0.22313181        8 
O       2.12992454      -0.65211373      -1.21330557        8 
O       1.71403159      -2.16165046       0.41381033        8 
C       3.52568381      -0.96073215      -1.09057784        6 
C       2.09859396       1.90858234       1.64440788        6 
C      -1.83095838       0.74575210      -0.30949294        6 
C      -2.74529089      -0.24604103      -1.09901134        6 
C      -2.48009385      -1.58801546      -0.36471787        6 
C      -1.24227749      -1.20997942       0.47830540        6 
O      -1.65088241       0.08987962       0.95972495        8 
H      -0.26761238       0.90417038      -1.91114170        1 
H      -0.36171689      -1.40548832      -1.50521457        1 
H       3.70354794      -2.02912794      -1.24228547        1 
H       1.45071069       2.56125736       2.23596523        1 
H      -3.79214719       0.06085110      -1.02677717        1 
H      -2.48602204      -0.27794744      -2.16272792        1 
H      -3.30738468      -1.84085240       0.30556107        1 
H      -2.30856274      -2.43602987      -1.03555463        1 
H       4.02616200      -0.37305970      -1.86107718        1 
H       3.88775076      -0.67970050      -0.09699485        1 
H       2.74237805       2.52607180       1.01172772        1 
H       2.69227042       1.26404028       2.29315901        1 
C      -0.91542542      -2.10836362       1.64829177        6 
H      -1.79990992      -2.19317743       2.28861848        1 
H      -0.62027226      -3.10239823       1.30510123        1 
H      -0.08843169      -1.69489836       2.22760171        1 
C      -2.43450762       2.12282856      -0.12524903        6 
H      -3.43454300       2.01729054       0.30741608        1 
H      -1.82991493       2.74949911       0.53060064        1 
H      -2.52169170       2.62952758      -1.09162833        1 
