35
Lattice="0.0 0.0 0.0 0.0 0.0 0.0 0.0 0.0 0.0" Properties=species:S:1:pos:R:3:Z:I:1 pbc="F F F"
C      -0.21843184       0.95100165       0.59083856        6 
C       0.45411463      -0.46882667       0.72087859        6 
C      -1.57861537       0.94047305      -0.09047564        6 
C      -0.40165561      -1.63708860       0.23401683        6 
O      -2.56162294       0.92968835       0.83547487        8 
O      -1.77794118       0.94371418      -1.28520195        8 
O       0.33907124      -2.72754975      -0.04508030        8 
O      -1.61263152      -1.64683302       0.17779159        8 
C      -0.40577673      -3.89492110      -0.43621085        6 
C      -3.87838052       0.70788103       0.30800805        6 
C       0.88504120       1.75850728      -0.16418357        6 
C       2.01386719       2.05479976       0.85945234        6 
C       2.68040601       0.66404967       1.00405768        6 
C       1.84353302      -0.19519220       0.00999828        6 
O       1.48473045       0.75665418      -0.99993862        8 
H      -0.37910166       1.36403520       1.58961885        1 
H       0.62624814      -0.70195778       1.77822164        1 
H      -1.00811386      -3.68342756      -1.32354438        1 
H      -3.91867438      -0.27762401      -0.16384061        1 
H       2.70799995       2.78384867       0.43169835        1 
H       1.63372870       2.46470841       1.80024943        1 
H       3.72485508       0.68752756       0.67979314        1 
H       2.66019416       0.26777466       2.02430570        1 
H       0.34339293      -4.65810086      -0.64935196        1 
H      -1.06700324      -4.21712330       0.37320508        1 
H      -4.13819030       1.47394010      -0.42803057        1 
H      -4.55102911       0.75337051       1.16569718        1 
C       2.62648359      -1.32527695      -0.62897487        6 
H       3.55041737      -0.91099411      -1.04561738        1 
H       2.88105968      -2.09292473       0.10630683        1 
H       2.05923092      -1.79447276      -1.43302052        1 
C       0.44645231       2.95606555      -0.98266286        6 
H       1.32280504       3.42630347      -1.44012619        1 
H      -0.24965166       2.65668861      -1.76623623        1 
H      -0.04284081       3.69465482      -0.33725401        1 
