35
Lattice="0.0 0.0 0.0 0.0 0.0 0.0 0.0 0.0 0.0" Properties=species:S:1:pos:R:3:Z:I:1 pbc="F F F"
C      -0.53789267       0.72467476      -0.83362493        6 
C      -0.23817652      -0.82022604      -0.87556422        6 
C       0.56064688       1.71352099      -0.49541806        6 
C       1.23396855      -1.15930025      -0.67334486        6 
O       1.47175460       1.24663628       0.37899008        8 
O       0.57697459       2.84529457      -0.93246827        8 
O       1.56275061      -1.55135836       0.56986366        8 
O       2.03743994      -1.07065129      -1.57854067        8 
C       2.96400266      -1.77439097       0.78157512        6 
C       2.51029375       2.17290090       0.73859569        6 
C      -1.68214522       0.77927051       0.26117915        6 
C      -2.98477164       0.29837020      -0.42081716        6 
C      -2.70134125      -1.21662659      -0.57847446        6 
C      -1.31389500      -1.36312860       0.12189035        6 
O      -1.35608051      -0.32380334       1.11499335        8 
H      -0.92493792       1.06997748      -1.79309005        1 
H      -0.43922534      -1.17932544      -1.88828589        1 
H       3.52443783      -0.85716628       0.58009752        1 
H       2.08097512       3.08023679       1.17169013        1 
H      -3.82977504       0.47577169       0.25134063        1 
H      -3.18872790       0.81569437      -1.36290695        1 
H      -3.44612737      -1.81739300      -0.04910339        1 
H      -2.68300454      -1.55410338      -1.61943356        1 
H       3.05922671      -2.06363697       1.82873112        1 
H       3.33521708      -2.56641766       0.12504167        1 
H       3.09969895       2.44154278      -0.14230173        1 
H       3.12569509       1.64893379       1.47043710        1 
C      -1.10136241      -2.72261492       0.75895094        6 
H      -1.96536241      -2.97175224       1.38306344        1 
H      -1.00575032      -3.49083239      -0.01702158        1 
H      -0.20342622      -2.73410574       1.37417196        1 
C      -1.79253958       2.05829558       1.06361818        6 
H      -2.62684752       1.98264364       1.76746766        1 
H      -0.87599226       2.23296638       1.63496246        1 
H      -1.95768058       2.91454968       0.40321230        1 
