35
Lattice="0.0 0.0 0.0 0.0 0.0 0.0 0.0 0.0 0.0" Properties=species:S:1:pos:R:3:Z:I:1 pbc="F F F"
C      -0.36457988       0.66026204      -0.81531594        6 
C      -0.06938672      -0.83152516      -0.49691477        6 
C       0.34868843       1.68249348       0.08827160        6 
C       1.35724617      -1.32788995      -0.36987682        6 
O       1.50710049       1.23198695       0.60739950        8 
O      -0.01738662       2.82816258       0.24468995        8 
O       2.18844888      -0.61343356      -1.15824158        8 
O       1.71369523      -2.29180061       0.27322648        8 
C       3.56350074      -1.02133628      -1.12142498        6 
C       2.21053730       2.16710057       1.44159466        6 
C      -1.88703095       0.65437928      -0.38296368        6 
C      -2.66550166      -0.47869677      -1.13869134        6 
C      -2.35204988      -1.73296911      -0.27609842        6 
C      -1.17871816      -1.19163664       0.56483420        6 
O      -1.71226851       0.09797766       0.94032530        8 
H      -0.18409315       0.92778711      -1.85960236        1 
H      -0.34494609      -1.36489362      -1.41914463        1 
H       3.66757749      -2.07274871      -1.40428296        1 
H       1.58550245       2.47640147       2.28378449        1 
H      -3.73467931      -0.25412156      -1.15724191        1 
H      -2.33728482      -0.57698259      -2.17919607        1 
H      -3.18983619      -1.97951666       0.38385871        1 
H      -2.09483024      -2.62348031      -0.85903863        1 
H       4.08039313      -0.37680882      -1.83331451        1 
H       3.97024634      -0.88480510      -0.11487193        1 
H       2.49221724       3.05341889       0.86630909        1 
H       3.09490995       1.63442495       1.79247028        1 
C      -0.78672870      -1.96802384       1.79885595        6 
H      -1.65911499      -2.06070283       2.45423459        1 
H      -0.42117716      -2.96074504       1.53088857        1 
H       0.01068047      -1.45230855       2.34009068        1 
C      -2.67043006       1.95245157      -0.33530854        6 
H      -3.68739304       1.73754422       0.00946839        1 
H      -2.21373752       2.68333515       0.32698226        1 
H      -2.73127500       2.38723916      -1.33904712        1 
