35
Lattice="0.0 0.0 0.0 0.0 0.0 0.0 0.0 0.0 0.0" Properties=species:S:1:pos:R:3:Z:I:1 pbc="F F F"
C      -0.30447466       0.55886949      -0.81611248        6 
C      -0.10257239      -0.98286615      -0.51777546        6 
C       0.84219793       1.39973147      -0.24795675        6 
C       1.27989789      -1.31774806       0.00928046        6 
O       0.47721246       2.36443494       0.60890665        8 
O       1.99344538       1.23993085      -0.60059757        8 
O       2.10442271      -1.60223675      -1.01767624        8 
O       1.63251901      -1.28140449       1.16933868        8 
C       3.49573751      -1.69811979      -0.67282127        6 
C       1.56311415       3.13256244       1.16069368        6 
C      -1.75115446       0.74602663      -0.26321200        6 
C      -2.69635050      -0.12675902      -1.15938248        6 
C      -2.52603097      -1.53269693      -0.53813867        6 
C      -1.33314418      -1.28783864       0.41428060        6 
O      -1.67427753      -0.00105816       0.96257327        8 
H      -0.25433367       0.73092194      -1.89602605        1 
H      -0.20678186      -1.53106897      -1.45737986        1 
H       3.65441220      -2.46059018       0.09463893        1 
H       2.10802924       3.65131884       0.36726511        1 
H      -3.72699992       0.23046514      -1.08564872        1 
H      -2.41003189      -0.08690286      -2.21584477        1 
H      -3.40171962      -1.81341151       0.05502204        1 
H      -2.33875664      -2.32515654      -1.26945239        1 
H       4.00827753      -1.96808000      -1.59694981        1 
H       3.84431372      -0.72937131      -0.30589502        1 
H       2.25198335       2.47474756       1.69669806        1 
H       1.09681474       3.84488408       1.84150824        1 
C      -1.16306875      -2.30924283       1.51803843        6 
H      -2.10519758      -2.40917292       2.06659714        1 
H      -0.90413747      -3.28580680       1.09381806        1 
H      -0.37276408      -2.00911523       2.20610957        1 
C      -2.29753379       2.14080136      -0.01966572        6 
H      -3.34565124       2.06588544       0.28700327        1 
H      -1.73916997       2.65905348       0.75643783        1 
H      -2.25150113       2.73201809      -0.94125124        1 
