35
Lattice="0.0 0.0 0.0 0.0 0.0 0.0 0.0 0.0 0.0" Properties=species:S:1:pos:R:3:Z:I:1 pbc="F F F"
C      -0.79558044      -0.07855208      -0.71180285        6 
C       0.75044776      -0.19886557      -0.60023968        6 
C      -1.46039871       1.00513973       0.12900407        6 
C       1.54130769       1.02750616      -0.18787418        6 
O      -2.24173057       1.78363015      -0.66529161        8 
O      -1.42477276       1.11373696       1.33080491        8 
O       2.77671424       0.96334419      -0.75314488        8 
O       1.18980114       1.94912091       0.51186904        8 
C       3.65846494       2.04410883      -0.40714462        6 
C      -2.97401563       2.80355020       0.03319461        6 
C      -1.20040853      -1.48649545      -0.13741918        6 
C      -0.63487280      -2.59064612      -1.08674457        6 
C       0.84284531      -2.69421317      -0.61760422        6 
C       0.92313175      -1.47521092       0.32747390        6 
O      -0.33514317      -1.57102866       1.00270255        8 
H      -1.11020567       0.04767589      -1.74953865        1 
H       1.14285719      -0.45375078      -1.58774547        1 
H       3.83728855       2.06393978       0.67191086        1 
H      -2.28933781       3.46449264       0.57178470        1 
H      -1.17543375      -3.52993605      -0.93786126        1 
H      -0.73469113      -2.31560065      -2.14183882        1 
H       1.00994196      -3.60765812      -0.03815228        1 
H       1.57217059      -2.66666766      -1.43321808        1 
H       4.58609080       1.85090289      -0.94722210        1 
H       3.22726686       3.00250206      -0.70980780        1 
H      -3.66634195       2.35431539       0.75157658        1 
H      -3.51985023       3.35322519      -0.73487881        1 
C       2.05832928      -1.43923845       1.32485830        6 
H       2.05542099      -2.35389207       1.92539958        1 
H       3.02004437      -1.35583626       0.80926073        1 
H       1.93869419      -0.58170019       1.99415357        1 
C      -2.64823832      -1.67123013       0.26605545        6 
H      -2.79094900      -2.67475713       0.67878813        1 
H      -2.93622139      -0.94176783       1.02633652        1 
H      -3.30262062      -1.55849281      -0.60543090        1 
