35
Lattice="0.0 0.0 0.0 0.0 0.0 0.0 0.0 0.0 0.0" Properties=species:S:1:pos:R:3:Z:I:1 pbc="F F F"
C      -0.37496378       0.58126949      -0.89713308        6 
C      -0.19285593      -0.96002261      -0.58496422        6 
C       0.81765914       1.42586950      -0.47804355        6 
C       1.17381232      -1.26665228       0.00647387        6 
O       0.90198107       1.57232535       0.85851568        8 
O       1.61669900       1.90235943      -1.25639004        8 
O       2.07798000      -1.32664478      -1.00035951        8 
O       1.47130906      -1.40372773       1.17183355        8 
C       3.44620240      -1.48674347      -0.59332252        6 
C       2.06017599       2.27741993       1.33176962        6 
C      -1.72868230       0.86638824      -0.16598246        6 
C      -2.84848233       0.19212751      -1.00968040        6 
C      -2.67180296      -1.30024048      -0.63099864        6 
C      -1.44194357      -1.24058926       0.31728038        6 
O      -1.64747349       0.01528178       0.98520139        8 
H      -0.46016808       0.73962393      -1.97338681        1 
H      -0.25243079      -1.52339673      -1.51963224        1 
H       3.57450904      -2.41289606      -0.02598742        1 
H       2.07680161       3.29844300       0.93998684        1 
H      -3.82545617       0.57205026      -0.69603949        1 
H      -2.74269262       0.39059202      -2.08081250        1 
H      -3.53605926      -1.67069620      -0.07189449        1 
H      -2.51958628      -1.96053795      -1.49066570        1 
H       4.02458012      -1.51408254      -1.51702380        1 
H       3.75850554      -0.64262456       0.02826861        1 
H       2.97312571       1.76287667       1.01833298        1 
H       1.97554757       2.27784582       2.41829045        1 
C      -1.35780527      -2.37398239       1.31906553        6 
H      -2.30817139      -2.45498904       1.85597495        1 
H      -1.17089186      -3.32312398       0.80378310        1 
H      -0.55217063      -2.19859816       2.03097278        1 
C      -2.01253843       2.30026222       0.23247032        6 
H      -2.98769623       2.35831348       0.72580397        1 
H      -1.25145470       2.67207435       0.92020337        1 
H      -2.03533606       2.94228718      -0.65520814        1 
