35
Lattice="0.0 0.0 0.0 0.0 0.0 0.0 0.0 0.0 0.0" Properties=species:S:1:pos:R:3:Z:I:1 pbc="F F F"
C       0.51767958       0.84141435       0.67211310        6 
C      -0.00408884      -0.63554783       0.69334904        6 
C      -0.39734848       1.80608301      -0.07688979        6 
C      -1.39152527      -0.88919479       0.14169419        6 
O      -1.33641767       2.27281352       0.78175323        8 
O      -0.30566990       2.16634275      -1.22641062        8 
O      -1.85109782      -2.07348049       0.61434852        8 
O      -2.02079349      -0.20378903      -0.63382311        8 
C      -3.12699434      -2.48560706       0.09511617        6 
C      -2.37173278       3.05610314       0.16650137        6 
C       1.91817092       0.64262176       0.01190717        6 
C       2.80944236      -0.14724020       1.02182980        6 
C       2.30797815      -1.60213429       0.82994877        6 
C       1.12379493      -1.37992450      -0.13987626        6 
O       1.62400337      -0.34647779      -0.99064385        8 
H       0.60181022       1.21795979       1.69497173        1 
H      -0.01198679      -1.02573139       1.71381094        1 
H      -3.07531137      -2.61408253      -0.99007469        1 
H      -2.88737906       2.45596706      -0.58835809        1 
H       3.86341836      -0.04764836       0.74727851        1 
H       2.69822126       0.21888565       2.04737839        1 
H       3.06422990      -2.22071699       0.33694064        1 
H       2.01437986      -2.10145006       1.75811957        1 
H      -3.34997104      -3.43430093       0.58428422        1 
H      -3.89393517      -1.74119812       0.32614736        1 
H      -1.95370155       3.94917285      -0.30687735        1 
H      -3.05195658       3.33208928       0.97362106        1 
C       0.70220348      -2.57800567      -0.96322271        6 
H       1.56688067      -2.96357030      -1.51194336        1 
H       0.30503130      -3.36944976      -0.32170294        1 
H      -0.06627196      -2.29667945      -1.69027667        1 
C       2.59790859       1.85057274      -0.60049857        6 
H       3.56125971       1.54780368      -1.02280162        1 
H       1.98116040       2.28519632      -1.38583657        1 
H       2.78271813       2.60794621       0.17006131        1 
