35
Lattice="0.0 0.0 0.0 0.0 0.0 0.0 0.0 0.0 0.0" Properties=species:S:1:pos:R:3:Z:I:1 pbc="F F F"
C       0.34210358       0.82608462       0.65996597        6 
C       0.21965701      -0.74862093       0.59382573        6 
C      -0.70397076       1.57704458      -0.16537768        6 
C      -1.11573375      -1.27775956       0.11119097        6 
O      -1.95001012       1.21935419       0.22449278        8 
O      -0.50772354       2.38995088      -1.03930681        8 
O      -1.94617440      -1.46369927       1.16172332        8 
O      -1.44363104      -1.47863891      -1.03899916        8 
C      -3.27944759      -1.86573495       0.81679822        6 
C      -3.02153856       1.77937153      -0.55371122        6 
C       1.80941295       0.99645455       0.16433679        6 
C       2.74012600       0.29568234       1.21112942        6 
C       2.65849604      -1.18883822       0.77772269        6 
C       1.50077037      -1.12624226      -0.24518719        6 
O       1.81881340       0.08597050      -0.94872511        8 
H       0.20845734       1.16040737       1.69465481        1 
H       0.33167776      -1.12833790       1.61231329        1 
H      -3.27030776      -2.81662821       0.27621330        1 
H      -2.96939493       1.40607307      -1.58018735        1 
H       3.75788995       0.68808901       1.13798100        1 
H       2.39557503       0.46077951       2.23769650        1 
H       3.57181047      -1.50116290       0.26229602        1 
H       2.47176325      -1.88594133       1.60085958        1 
H      -3.81147524      -1.96605988       1.76350840        1 
H      -3.75334156      -1.10787276       0.18651530        1 
H      -2.96536817       2.87081212      -0.56249465        1 
H      -3.93920575       1.44376465      -0.06923956        1 
C       1.41387883      -2.28996448      -1.20936372        6 
H       2.38497117      -2.42840784      -1.69497050        1 
H       1.15817329      -3.21183570      -0.67517047        1 
H       0.65119191      -2.10608089      -1.96567915        1 
C       2.29559796       2.37174865      -0.25043878        6 
H       3.34875743       2.30424933      -0.54175798        1 
H       1.71238227       2.76003247      -1.08231596        1 
H       2.21598723       3.06944489       0.59117702        1 
