35
Lattice="0.0 0.0 0.0 0.0 0.0 0.0 0.0 0.0 0.0" Properties=species:S:1:pos:R:3:Z:I:1 pbc="F F F"
C      -0.06350389       0.59457186      -0.79246020        6 
C      -0.29319389      -0.92575577      -0.58576947        6 
C       0.99458239       1.14489704       0.15546088        6 
C       0.92216699      -1.79454313      -0.31561733        6 
O       1.22297460       2.45617167      -0.08708895        8 
O       1.50581840       0.54822851       1.07718098        8 
O       2.02036432      -1.28747005      -0.91893235        8 
O       0.91373724      -2.85596999       0.26792573        8 
C       3.22685917      -2.03856399      -0.71307492        6 
C       2.14178242       3.08941903       0.81951530        6 
C      -1.47742070       1.10815779      -0.30772666        6 
C      -2.58045159       0.46645081      -1.21376673        6 
C      -2.77165459      -0.92524859      -0.55137303        6 
C      -1.54025038      -0.96558206       0.38036921        6 
O      -1.58934132       0.37243877       0.91904057        8 
H       0.16485056       0.87740118      -1.82214808        1 
H      -0.62303996      -1.32498665      -1.55537279        1 
H       3.11051667      -3.06544169      -1.07094643        1 
H       3.11748469       2.59694051       0.78250459        1 
H      -3.49600737       1.06366699      -1.18082152        1 
H      -2.26466919       0.40546435      -2.26068326        1 
H      -3.68141363      -0.95052452       0.05624289        1 
H      -2.80925026      -1.75540795      -1.26422930        1 
H       3.99786971      -1.51667752      -1.28125351        1 
H       3.47954610      -2.05700401       0.35072064        1 
H       1.76136302       3.04059949       1.84376952        1 
H       2.21880859       4.12426308       0.48420676        1 
C      -1.56550307      -1.97299331       1.50532086        6 
H      -2.47084190      -1.81527671       2.10105622        1 
H      -1.55879480      -2.99254364       1.11487576        1 
H      -0.68836814      -1.85212892       2.14372994        1 
C      -1.67680599       2.58848460      -0.05389913        6 
H      -2.70806118       2.75858347       0.27157208        1 
H      -1.00428269       2.95771632       0.72109129        1 
H      -1.49751628       3.16377179      -0.96756549        1 
