35
Lattice="0.0 0.0 0.0 0.0 0.0 0.0 0.0 0.0 0.0" Properties=species:S:1:pos:R:3:Z:I:1 pbc="F F F"
C      -0.75157810      -0.01813271      -0.73904849        6 
C       0.77780579      -0.18182847      -0.57943916        6 
C      -1.41082256       1.04133450       0.13012562        6 
C       1.60639323       1.05677873      -0.29134084        6 
O      -2.46043195       1.58658307      -0.54105260        8 
O      -1.16596681       1.28357654       1.28699837        8 
O       2.90247915       0.79855783      -0.61574907        8 
O       1.22949125       2.14673802       0.07038442        8 
C       3.80852434       1.89466656      -0.40867421        6 
C      -3.24749783       2.51018549       0.22678083        6 
C      -1.20608850      -1.42025262      -0.17602611        6 
C      -0.60247734      -2.54630293      -1.07481992        6 
C       0.84043595      -2.67196210      -0.50777302        6 
C       0.89173919      -1.42428150       0.40135460        6 
O      -0.40528726      -1.49354191       1.01010449        8 
H      -1.05140126       0.12711311      -1.77858034        1 
H       1.17157335      -0.51088202      -1.54628045        1 
H       3.80845808       2.20208046       0.64107317        1 
H      -2.62488743       3.32800590       0.59948353        1 
H      -1.16977647      -3.47370397      -0.95289632        1 
H      -0.62733653      -2.28135809      -2.13693926        1 
H       0.94240477      -3.56928380       0.11039504        1 
H       1.62034459      -2.69049622      -1.27556549        1 
H       4.79127279       1.52262542      -0.70072494        1 
H       3.52057297       2.75082680      -1.02545980        1 
H      -3.70952665       2.00379855       1.08020451        1 
H      -4.01192212       2.88490479      -0.45535921        1 
C       1.96634820      -1.36905116       1.46146823        6 
H       1.91321447      -2.26407460       2.08885053        1 
H       2.95720825      -1.30974104       1.00301630        1 
H       1.81633814      -0.48959209       2.09587925        1 
C      -2.67441015      -1.57788053       0.15893841        6 
H      -2.85360132      -2.57765927       0.56658796        1 
H      -2.98467796      -0.84422645       0.90773985        1 
H      -3.28865412      -1.44935663      -0.73813760        1 
