35
Lattice="0.0 0.0 0.0 0.0 0.0 0.0 0.0 0.0 0.0" Properties=species:S:1:pos:R:3:Z:I:1 pbc="F F F"
C       0.21182093       0.87303800       0.71152171        6 
C       0.45476721      -0.64872465       0.94189064        6 
C      -1.17041282       1.49460875       0.62103644        6 
C      -0.56668826      -1.67070382       0.46807409        6 
O      -2.12679748       0.72325573       0.07576587        8 
O      -1.37220083       2.63778237       0.98184305        8 
O      -0.95158615      -1.50516936      -0.80803893        8 
O      -0.96103810      -2.57753007       1.17395866        8 
C      -1.94258010      -2.43098393      -1.27178526        6 
C      -3.42466342       1.33475296      -0.02482943        6 
C       1.18939185       1.19486976      -0.49919667        6 
C       2.56484513       1.47961711       0.14355393        6 
C       2.89101788       0.08093578       0.73921524        6 
C       1.77834592      -0.80959221       0.10034456        6 
O       1.43217446      -0.08717073      -1.08967873        8 
H       0.61523123       1.38925729       1.58613147        1 
H       0.61464582      -0.87052811       1.99847454        1 
H      -2.86016107      -2.33276807      -0.68342262        1 
H      -3.37746918       2.23015687      -0.65043700        1 
H       3.27646443       1.74803713      -0.64331281        1 
H       2.54444160       2.28587932       0.88293221        1 
H       3.88130787      -0.27028306       0.43518275        1 
H       2.85312010       0.05993130       1.83308254        1 
H      -2.12461501      -2.16535486      -2.31381303        1 
H      -1.58256862      -3.46091121      -1.19357209        1 
H      -3.79621378       1.61340827       0.96512939        1 
H      -4.06626629       0.57886124      -0.47882817        1 
C       2.19498052      -2.22643410      -0.23433399        6 
H       3.10668734      -2.21222208      -0.83951771        1 
H       2.38904478      -2.79501534       0.68082422        1 
H       1.41408235      -2.73681458      -0.80439280        1 
C       0.68746639       2.17275461      -1.53586372        6 
H       1.43865824       2.30217151      -2.32081728        1 
H      -0.23186300       1.79277295      -1.99298463        1 
H       0.47540197       3.14364434      -1.07866209        1 
