35
Lattice="0.0 0.0 0.0 0.0 0.0 0.0 0.0 0.0 0.0" Properties=species:S:1:pos:R:3:Z:I:1 pbc="F F F"
C      -0.75940821       0.07139441      -0.77308149        6 
C       0.66783610      -0.56848080      -0.66401833        6 
C      -0.73104603       1.57305482      -0.50981621        6 
C       1.65155816       0.28823422       0.11147949        6 
O      -1.79346179       2.04369141       0.16271638        8 
O       0.13809692       2.28991834      -0.96218968        8 
O       2.80408014       0.43846487      -0.57411619        8 
O       1.46125984       0.74643974       1.21758119        8 
C       3.78589396       1.26558993       0.07157115        6 
C      -1.79880030       3.46727979       0.37572194        6 
C      -1.62202360      -0.93729174       0.07920488        6 
C      -1.84987555      -2.18139420      -0.82772757        6 
C      -0.43836619      -2.82422601      -0.84407630        6 
C       0.34114069      -1.88558827       0.11850006        6 
O      -0.67322847      -1.44711413       1.02921705        8 
H      -1.08476632       0.01907407      -1.81914707        1 
H       1.09477544      -0.77846499      -1.64577394        1 
H       4.08075389       0.83498545       1.03296596        1 
H      -1.81227806       3.99743221      -0.58057815        1 
H      -2.57618066      -2.84292427      -0.34673732        1 
H      -2.23408715      -1.92773710      -1.82071979        1 
H      -0.45548304      -3.84111311      -0.44065943        1 
H       0.01471431      -2.86754256      -1.83947637        1 
H       4.63502669       1.30177770      -0.61181111        1 
H       3.37977331       2.26680397       0.23933864        1 
H      -0.91069823       3.76686618       0.93773506        1 
H      -2.70603065       3.67180052       0.94492021        1 
C       1.48957178      -2.52568038       0.86990278        6 
H       1.13637730      -3.41799507       1.39575673        1 
H       2.28523169      -2.82089194       0.17713276        1 
H       1.89859488      -1.82926292       1.60603929        1 
C      -2.86276970      -0.46167409       0.80704752        6 
H      -3.34303365      -1.32061229       1.28723048        1 
H      -2.60672105       0.27335359       1.57002157        1 
H      -3.57252374      -0.00268040       0.11268561        1 
