35
Lattice="0.0 0.0 0.0 0.0 0.0 0.0 0.0 0.0 0.0" Properties=species:S:1:pos:R:3:Z:I:1 pbc="F F F"
C       0.48215912       0.79595153       0.66450976        6 
C       0.08345704      -0.71387358       0.68342992        6 
C      -0.59539960       1.80365537       0.29641230        6 
C      -1.12263468      -1.03933781      -0.17784211        6 
O      -1.82793843       1.34049546       0.60274602        8 
O      -0.39902118       2.91994665      -0.13034374        8 
O      -2.02627499      -1.76786333       0.51881795        8 
O      -1.26454948      -0.73756184      -1.34210731        8 
C      -3.20464266      -2.12795495      -0.21861649        6 
C      -2.91742467       2.22070461       0.28178228        6 
C       1.81217952       0.77458314      -0.18836370        6 
C       2.93629431       0.34033113       0.78766629        6 
C       2.54792189      -1.13841812       1.05973893        6 
C       1.37317305      -1.34731849       0.05811641        6 
O       1.66846113      -0.41305933      -0.98484233        8 
H       0.73707339       1.09011132       1.69089182        1 
H      -0.10224723      -1.07740193       1.69546215        1 
H      -2.94732273      -2.75105153      -1.08023086        1 
H      -2.94265065       2.41070293      -0.79458872        1 
H       3.89911789       0.40464465       0.27245270        1 
H       2.98945594       0.95930858       1.68867247        1 
H       3.36891950      -1.82141802       0.82305206        1 
H       2.24662019      -1.32740669       2.09519928        1 
H      -3.83364026      -2.68027221       0.48074680        1 
H      -3.71896601      -1.23112180      -0.57650847        1 
H      -2.81449725       3.17138016       0.81194593        1 
H      -3.81851286       1.69585203       0.60109091        1 
C       1.23553519      -2.74931260      -0.49862127        6 
H       2.18584357      -3.06674302      -0.93901735        1 
H       0.96883044      -3.45283354       0.29756419        1 
H       0.46903751      -2.78486772      -1.27739587        1 
C       2.13289855       1.95262278      -1.08090076        6 
H       3.07844242       1.75738858      -1.59745414        1 
H       1.34559571       2.09916941      -1.82213957        1 
H       2.22024574       2.87236295      -0.49837141        1 
