35
Lattice="0.0 0.0 0.0 0.0 0.0 0.0 0.0 0.0 0.0" Properties=species:S:1:pos:R:3:Z:I:1 pbc="F F F"
C       0.19735511       0.95823733       0.62066144        6 
C       0.38912453      -0.58033860       0.88299547        6 
C      -1.16954958       1.31637782       0.05438160        6 
C      -0.70698101      -1.52550279       0.43661124        6 
O      -2.10468261       1.06672309       1.00785313        8 
O      -1.44242402       1.79264155      -1.02233372        8 
O      -1.23599593      -1.18543091      -0.75586148        8 
O      -1.03106050      -2.51738899       1.05436537        8 
C      -2.26241406      -2.05712348      -1.25515299        6 
C      -3.46365634       1.28305005       0.59794901        6 
C       1.44707911       1.28125365      -0.26304404        6 
C       2.68551209       1.25864571       0.68180591        6 
C       2.88510260      -0.26093240       0.91648848        6 
C       1.72127628      -0.85415975       0.08372798        6 
O       1.61767351       0.06298222      -1.01061340        8 
H       0.25558931       1.48718094       1.57736079        1 
H       0.52622089      -0.79217561       1.94410108        1 
H      -3.08388918      -2.13166991      -0.53687768        1 
H      -3.71158690       0.63702367      -0.24976047        1 
H       3.54455412       1.69497083       0.16432515        1 
H       2.52633731       1.82840058       1.60290891        1 
H       3.83981142      -0.60587868       0.50804343        1 
H       2.84436793      -0.55807311       1.96892390        1 
H      -2.59998537      -1.60170692      -2.18633925        1 
H      -1.85931754      -3.05750280      -1.43639897        1 
H      -3.61847038       2.32487691       0.30385327        1 
H      -4.07636354       1.03091562       1.46416229        1 
C       1.92379232      -2.26813601      -0.41891819        6 
H       2.88217458      -2.34302344      -0.94154135        1 
H       1.91632491      -2.97778173       0.41416952        1 
H       1.12938128      -2.54461528      -1.11813453        1 
C       1.39773061       2.47662960      -1.19295517        6 
H       2.35888924       2.57089866      -1.70849197        1 
H       0.59946709       2.36750545      -1.92471542        1 
H       1.21999624       3.39460711      -0.62176349        1 
