35
Lattice="0.0 0.0 0.0 0.0 0.0 0.0 0.0 0.0 0.0" Properties=species:S:1:pos:R:3:Z:I:1 pbc="F F F"
C       0.04002906       0.98839129       0.55974589        6 
C       0.20637203      -0.54318904       0.79574780        6 
C      -1.36383585       1.46747548       0.23218600        6 
C      -0.71130877      -1.36000438      -0.11451256        6 
O      -2.23762627       0.90862483       1.10568153        8 
O      -1.68164155       2.29162464      -0.59408884        8 
O      -0.40830036      -2.67424681      -0.07107887        8 
O      -1.57049076      -0.91760310      -0.84672631        8 
C      -1.19883021      -3.51511120      -0.92979079        6 
C      -3.62010108       1.17667890       0.83017060        6 
C       1.24907641       1.32978967      -0.38619509        6 
C       2.42972680       1.62015948       0.56725291        6 
C       2.58411741       0.24005249       1.25615591        6 
C       1.71052506      -0.68350998       0.34018054        6 
O       1.64750739       0.03967571      -0.90045451        8 
H       0.22172611       1.47318244       1.52793479        1 
H       0.04573099      -0.84499482       1.83406943        1 
H      -1.07104856      -3.21959180      -1.97468252        1 
H      -3.88857029       0.75893111      -0.14451623        1 
H       3.31567253       1.86828185      -0.02510520        1 
H       2.23475709       2.44455349       1.26082605        1 
H       3.62321795      -0.09979246       1.26310192        1 
H       2.23221667       0.23429141       2.29335178        1 
H      -0.82960736      -4.52801347      -0.76573637        1 
H      -2.25832920      -3.44268825      -0.66879305        1 
H      -3.81805337       2.25209658       0.82902645        1 
H      -4.18042738       0.68346143       1.62594064        1 
C       2.32488703      -2.05202484       0.11464688        6 
H       3.38232758      -1.92547601      -0.13874753        1 
H       2.25170054      -2.66434004       1.01873196        1 
H       1.83495534      -2.58314509      -0.70016753        1 
C       1.04953722       2.29653136      -1.53067817        6 
H       1.99204265       2.39363413      -2.08024848        1 
H       0.27093603       1.93920189      -2.20616727        1 
H       0.74408395       3.27808828      -1.16098576        1 
