35
Lattice="0.0 0.0 0.0 0.0 0.0 0.0 0.0 0.0 0.0" Properties=species:S:1:pos:R:3:Z:I:1 pbc="F F F"
C      -0.02378834       0.86274090       0.58874569        6 
C       0.46627873      -0.59741875       0.91980406        6 
C      -1.45077790       0.99134484       0.08638848        6 
C      -0.41913346      -1.73818246       0.44448100        6 
O      -2.23131033       1.53010964       1.05728337        8 
O      -1.87827738       0.70214234      -1.00945591        8 
O      -0.58955804      -1.74801058      -0.88563516        8 
O      -0.92403602      -2.54789961       1.19667755        8 
C      -1.50480349      -2.73042939      -1.39168620        6 
C      -3.61631566       1.68618387       0.70589327        6 
C       1.09877735       1.35127909      -0.40857499        6 
C       2.29890118       1.77647148       0.47614649        6 
C       2.78547287       0.40034663       1.00431865        6 
C       1.86940648      -0.58360554       0.21852459        6 
O       1.59006249       0.13562341      -0.98817779        8 
H       0.02077709       1.45166439       1.50655194        1 
H       0.55465540      -0.73919701       1.99809031        1 
H      -2.48673690      -2.60908307      -0.92622442        1 
H      -4.05807444       0.71914164       0.44865870        1 
H       3.05861942       2.24844925      -0.15400788        1 
H       2.02421941       2.48331807       1.26532671        1 
H       3.83349639       0.21891559       0.74882985        1 
H       2.68388495       0.28545399       2.08813702        1 
H      -1.56402776      -2.54376497      -2.46382835        1 
H      -1.13781802      -3.74161270      -1.19201819        1 
H      -3.72175884       2.35943566      -0.14989832        1 
H      -4.09805706       2.10637714       1.58935940        1 
C       2.48380084      -1.93421329      -0.08526632        6 
H       3.45009744      -1.79967283      -0.58134413        1 
H       2.64320548      -2.49760382       0.84039234        1 
H       1.83579448      -2.51547343      -0.74564914        1 
C       0.69490963       2.32989516      -1.48977524        6 
H       1.56770215       2.57834241      -2.10143732        1 
H      -0.07733858       1.89547724      -2.12618834        1 
H       0.30913999       3.25444885      -1.04527738        1 
