35
Lattice="0.0 0.0 0.0 0.0 0.0 0.0 0.0 0.0 0.0" Properties=species:S:1:pos:R:3:Z:I:1 pbc="F F F"
C      -0.78888398       0.31944499       0.78748886        6 
C       0.76505019       0.16408577       0.76760006        6 
C      -1.48078565      -1.03232680       0.65589119        6 
C       1.23447487      -1.05064368      -0.00848703        6 
O      -2.47993788      -1.07873295      -0.23877528        8 
O      -1.19202572      -1.95770808       1.38616535        8 
O       2.49518012      -1.38168004       0.35099139        8 
O       0.62588378      -1.61141161      -0.89371273        8 
C       3.06880649      -2.47640596      -0.38329091        6 
C      -3.11464579      -2.36299345      -0.37175667        6 
C      -1.00819600       1.53251694      -0.19091534        6 
C      -0.71059132       2.80429996       0.65033958        6 
C       0.82315514       2.68988312       0.85568258        6 
C       1.16810175       1.45735752      -0.02938818        6 
O       0.15405427       1.48830129      -1.04034497        8 
H      -1.08224385       0.62855220       1.79734360        1 
H       1.21017619       0.14184073       1.76344249        1 
H       3.12386729      -2.23661154      -1.44929045        1 
H      -3.56260656      -2.67207181       0.57677340        1 
H      -0.96259583       3.69067655       0.06059168        1 
H      -1.28151069       2.84676683       1.58307809        1 
H       1.34583588       3.57598371       0.48355602        1 
H       1.11668902       2.54492794       1.90025973        1 
H       4.06713506      -2.61774153       0.03192031        1 
H       2.46481240      -3.37898130      -0.25538405        1 
H      -2.38025499      -3.11069208      -0.68218066        1 
H      -3.88055992      -2.23080680      -1.13675601        1 
C       2.54297570       1.47815417      -0.66528395        6 
H       2.69543018       2.43290295      -1.17790448        1 
H       3.32191055       1.35211111       0.09244238        1 
H       2.64359114       0.67554628      -1.40105040        1 
C      -2.25692372       1.61397673      -1.04326637        6 
H      -2.24157997       2.55201367      -1.60797753        1 
H      -2.30294511       0.77810195      -1.74082999        1 
H      -3.15625057       1.59188095      -0.42060889        1 
