35
Lattice="0.0 0.0 0.0 0.0 0.0 0.0 0.0 0.0 0.0" Properties=species:S:1:pos:R:3:Z:I:1 pbc="F F F"
C       0.38180904       0.91806429       0.70011608        6 
C       0.30886188      -0.65241600       0.81109854        6 
C      -0.76411880       1.68789254       0.04765161        6 
C      -1.08376426      -1.26826469       0.78877480        6 
O      -1.90726046       0.98894753      -0.06071694        8 
O      -0.68736825       2.86010885      -0.25577534        8 
O      -1.45544642      -1.76979686      -0.40560916        8 
O      -1.77221053      -1.34469358       1.78397950        8 
C      -2.78088621      -2.31722471      -0.44430645        6 
C      -3.02649197       1.70512829      -0.60930970        6 
C       1.72045513       1.06007657      -0.11497176        6 
C       2.87581090       0.52249061       0.78812456        6 
C       2.76130935      -1.00700786       0.58264233        6 
C       1.43087224      -1.10368112      -0.20468732        6 
O       1.54743182       0.01923121      -1.09298855        8 
H       0.48040205       1.37034842       1.69232664        1 
H       0.64052986      -0.90207205       1.82238054        1 
H      -3.51725397      -1.54213078      -0.21248806        1 
H      -2.80501077       2.03449258      -1.62801618        1 
H       3.83883087       0.90743517       0.44150465        1 
H       2.75569051       0.83123198       1.83173631        1 
H       3.57549549      -1.38014751      -0.04588187        1 
H       2.75516355      -1.58672946       1.51069783        1 
H      -2.91735812      -2.68565664      -1.46180205        1 
H      -2.88604210      -3.12945118       0.28015344        1 
H      -3.25929509       2.57852425       0.00542967        1 
H      -3.85524798       0.99676947      -0.60386207        1 
C       1.26216659      -2.38668364      -0.99335168        6 
H       2.17825383      -2.58281933      -1.55986396        1 
H       1.08272162      -3.23173034      -0.32025165        1 
H       0.42394748      -2.31387997      -1.68467225        1 
C       2.04464989       2.36789565      -0.80842473        6 
H       3.01735409       2.26800498      -1.30129246        1 
H       1.29328854       2.62205157      -1.55531308        1 
H       2.09372657       3.18903152      -0.08805309        1 
