35
Lattice="0.0 0.0 0.0 0.0 0.0 0.0 0.0 0.0 0.0" Properties=species:S:1:pos:R:3:Z:I:1 pbc="F F F"
C      -0.82966690      -0.27409298      -0.77162300        6 
C       0.74267034      -0.26346997      -0.79601264        6 
C      -1.47765884       1.10686753      -0.74403556        6 
C       1.35266822       0.98787860      -0.16074879        6 
O      -1.94470401       1.48138821       0.46101371        8 
O      -1.61955273       1.76250601      -1.75377633        8 
O       2.63520166       0.80196874       0.20675447        8 
O       0.78934176       2.05175979      -0.01804836        8 
C       3.28296731       1.95385784       0.77630779        6 
C      -2.45100303       2.82418462       0.51511771        6 
C      -1.13718922      -1.38767370       0.30232422        6 
C      -1.08660434      -2.72261056      -0.47846388        6 
C       0.40447289      -2.76372407      -0.88896683        6 
C       1.01342361      -1.60798803      -0.02536133        6 
O       0.08302724      -1.47218081       1.06276273        8 
H      -1.15328008      -0.64573152      -1.74746835        1 
H       1.12359815      -0.30173677      -1.82229929        1 
H       2.75244899       2.28317242       1.67359503        1 
H      -3.27037411       2.95758389      -0.19648769        1 
H      -1.32980902      -3.54329403       0.20329732        1 
H      -1.78388847      -2.75809111      -1.32118036        1 
H       0.87030686      -3.71893528      -0.63319825        1 
H       0.56030124      -2.59921567      -1.96005198        1 
H       4.29352884       1.62622171       1.02198187        1 
H       3.30595916       2.77605068       0.05573929        1 
H      -1.64833656       3.52760517       0.27837550        1 
H      -2.80028622       2.96496581       1.53888588        1 
C       2.39274539      -1.93704633       0.51534538        6 
H       2.37410641      -2.94968018       0.93108169        1 
H       3.14292874      -1.89813029      -0.28023433        1 
H       2.68926426      -1.24380724       1.30084631        1 
C      -2.32365755      -1.23686826       1.23031751        6 
H      -2.42138217      -2.14226841       1.83855309        1 
H      -2.19650145      -0.37643561       1.88578216        1 
H      -3.24647415      -1.10018843       0.65741138        1 
