35
Lattice="0.0 0.0 0.0 0.0 0.0 0.0 0.0 0.0 0.0" Properties=species:S:1:pos:R:3:Z:I:1 pbc="F F F"
C      -0.77174782      -0.04731886      -0.76335020        6 
C       0.75629396      -0.29709878      -0.68842527        6 
C      -1.23001230       1.11662123       0.09669506        6 
C       1.56781018       0.98024425      -0.54061497        6 
O      -2.40549742       1.60198657      -0.36792572        8 
O      -0.70346538       1.49963265       1.11663732        8 
O       2.80290015       0.76239449      -0.04731203        8 
O       1.20416262       2.05532887      -0.96692291        8 
C       3.64971777       1.92453396       0.00421556        6 
C      -2.99363275       2.63870937       0.43445236        6 
C      -1.29091003      -1.37225768      -0.09946796        6 
C      -0.85956774      -2.57290339      -0.99852953        6 
C       0.61794850      -2.77973163      -0.56446863        6 
C       0.84699523      -1.52224975       0.30999663        6 
O      -0.40335193      -1.47006792       1.02073296        8 
H      -1.14495993       0.08031055      -1.78104518        1 
H       1.08699164      -0.65420873      -1.67282274        1 
H       3.19884682       2.69572061       0.63429172        1 
H      -2.32044192       3.49756473       0.50316551        1 
H      -1.47245020      -3.45209611      -0.78014773        1 
H      -0.97125894      -2.34786733      -2.06435272        1 
H       0.72036122      -3.67166808       0.06101582        1 
H       1.32162010      -2.86274292      -1.39890043        1 
H       4.59258821       1.57945037       0.42975790        1 
H       3.80263735       2.33129909      -0.99942301        1 
H      -3.20167305       2.27117999       1.44387695        1 
H      -3.91933507       2.91344965      -0.07269380        1 
C       1.98264853      -1.60001570       1.30510448        6 
H       1.83356128      -2.48012777       1.93899750        1 
H       2.94598187      -1.68272769       0.79638649        1 
H       2.00125453      -0.70806080       1.93457165        1 
C      -2.73228051      -1.39251463       0.36448829        6 
H      -2.95935094      -2.36319939       0.81635564        1 
H      -2.91188560      -0.61694112       1.11361150        1 
H      -3.41255643      -1.22604199      -0.47657045        1 
