35
Lattice="0.0 0.0 0.0 0.0 0.0 0.0 0.0 0.0 0.0" Properties=species:S:1:pos:R:3:Z:I:1 pbc="F F F"
C      -0.52398845       0.55277906      -0.88548993        6 
C       0.04781735      -0.89502980      -0.61730006        6 
C       0.51498849       1.60593917      -0.51090324        6 
C       1.43246758      -0.88777585       0.00049287        6 
O       0.20395769       2.37686982       0.53857875        8 
O       1.54601739       1.71956716      -1.14367495        8 
O       2.31809479      -1.52961058      -0.78637214        8 
O       1.72237869      -0.38458074       1.06667918        8 
C       3.67645880      -1.50681353      -0.31446702        6 
C       1.25374730       3.25865837       0.97701783        6 
C      -1.89765888       0.46858577      -0.15038882        6 
C      -2.79213800      -0.50735330      -0.98134101        6 
C      -2.24801115      -1.89235496      -0.55159334        6 
C      -1.05543854      -1.48017604       0.34462309        6 
O      -1.56729725      -0.31634963       1.00797510        8 
H      -0.66285150       0.68941866      -1.96196667        1 
H       0.09745209      -1.46892765      -1.54337252        1 
H       3.75409287      -1.99701817       0.66017631        1 
H       1.53412444       3.95166347       0.17937304        1 
H      -3.84102472      -0.38270702      -0.69811974        1 
H      -2.71678572      -0.32445977      -2.05799414        1 
H      -2.98049799      -2.43720753       0.05183416        1 
H      -1.95229531      -2.53450470      -1.38718041        1 
H       4.25611140      -2.04509053      -1.06495278        1 
H       4.02200437      -0.47349763      -0.22432329        1 
H       2.12631570       2.66954296       1.27035634        1 
H       0.84305047       3.79524087       1.83256614        1 
C      -0.61028688      -2.51592253       1.35531985        6 
H      -1.46505288      -2.81904771       1.96764991        1 
H      -0.21708347      -3.40256852       0.84512013        1 
H       0.16300817      -2.10745108       2.00858181        1 
C      -2.61058761       1.74738247       0.24376151        6 
H      -3.57158087       1.49636071       0.70396886        1 
H      -2.02066658       2.32887875       0.94929819        1 
H      -2.80622686       2.36208418      -0.64252676        1 
