35
Lattice="0.0 0.0 0.0 0.0 0.0 0.0 0.0 0.0 0.0" Properties=species:S:1:pos:R:3:Z:I:1 pbc="F F F"
C      -0.17432529       0.86336889       0.64100965        6 
C       0.63575843      -0.45966812       0.85885405        6 
C      -1.47266346       0.78011045      -0.14894581        6 
C      -0.00261822      -1.82708575       0.71334695        6 
O      -2.51320537       1.13588972       0.65122055        8 
O      -1.60312254       0.54512147      -1.32706949        8 
O      -0.86840231      -1.92812665      -0.30753522        8 
O       0.29998837      -2.76256575       1.42745499        8 
C      -1.43486311      -3.23185838      -0.51887305        6 
C      -3.79716873       1.13301274       0.00739814        6 
C       0.89445017       1.69172035      -0.16022022        6 
C       2.11375969       1.94854056       0.78195046        6 
C       2.89164553       0.60983986       0.67651474        6 
C       1.87554036      -0.24705681      -0.11144955        6 
O       1.38887831       0.69919531      -1.06768048        8 
H      -0.40657888       1.32372742       1.60326071        1 
H       1.00188488      -0.47097546       1.88709706        1 
H      -2.00529853      -3.54957366       0.35867198        1 
H      -4.02362753       0.14036839      -0.39279264        1 
H       2.70325104       2.79175310       0.41149107        1 
H       1.80021209       2.18587595       1.80358239        1 
H       3.80142323       0.72515564       0.07913405        1 
H       3.16770745       0.17656105       1.64234706        1 
H      -2.08491736      -3.12521768      -1.38740082        1 
H      -0.64550518      -3.96382214      -0.71089281        1 
H      -3.81784792       1.85443684      -0.81485874        1 
H      -4.51549413       1.40948877       0.78032446        1 
C       2.40993423      -1.47865168      -0.80751414        6 
H       3.26486239      -1.21120826      -1.43601309        1 
H       2.72572896      -2.22906727      -0.07642257        1 
H       1.63466619      -1.91432441      -1.44526122        1 
C       0.40595228       2.91660904      -0.90583322        6 
H       1.24288595       3.38208989      -1.43564556        1 
H      -0.36214695       2.65320700      -1.63555671        1 
H      -0.00583305       3.64864841      -0.20168161        1 
