35
Lattice="0.0 0.0 0.0 0.0 0.0 0.0 0.0 0.0 0.0" Properties=species:S:1:pos:R:3:Z:I:1 pbc="F F F"
C       0.46537244       0.78551182       0.67300502        6 
C       0.11656495      -0.74559501       0.65160965        6 
C      -0.63103306       1.73763569       0.21470805        6 
C      -1.11899597      -1.07340135      -0.16512696        6 
O      -1.84361231       1.29510220       0.62302976        8 
O      -0.47750232       2.79313620      -0.35665369        8 
O      -2.06293846      -1.66769200       0.59955198        8 
O      -1.26303062      -0.84839721      -1.34731552        8 
C      -3.28677637      -1.97148291      -0.08638527        6 
C      -2.96314619       2.10250905       0.22354047        6 
C       1.83579988       0.81011885      -0.10538885        6 
C       2.91525688       0.31991737       0.89854034        6 
C       2.57022052      -1.18763432       1.01779220        6 
C       1.41123981      -1.32758998      -0.00951781        6 
O       1.72378231      -0.32375375      -0.98126148        8 
H       0.63644658       1.08567443       1.71447457        1 
H      -0.03121383      -1.13459649       1.66059881        1 
H      -3.10402568      -2.64792779      -0.92625403        1 
H      -3.04882838       2.11017652      -0.86665407        1 
H       3.90586270       0.46335150       0.45716575        1 
H       2.89187618       0.85841306       1.85134716        1 
H       3.41156842      -1.81685931       0.71285654        1 
H       2.27468223      -1.49336957       2.02628057        1 
H      -3.93195692      -2.44381619       0.65548953        1 
H      -3.74487902      -1.05399589      -0.46829538        1 
H      -2.84695763       3.12856096       0.58214133        1 
H      -3.83709581       1.63109522       0.67477773        1 
C       1.28994438      -2.68909474      -0.66271262        6 
H       2.24687940      -2.96473778      -1.11658686        1 
H       1.02875954      -3.44814646       0.08318442        1 
H       0.52738556      -2.67874883      -1.44489796        1 
C       2.21910533       2.03844494      -0.90335641        6 
H       3.20621420       1.87375865      -1.34802075        1 
H       1.49670638       2.23104533      -1.69626195        1 
H       2.25943415       2.92341705      -0.26280367        1 
