35
Lattice="0.0 0.0 0.0 0.0 0.0 0.0 0.0 0.0 0.0" Properties=species:S:1:pos:R:3:Z:I:1 pbc="F F F"
C      -0.50364620       0.55781761       0.70205799        6 
C       0.86683147      -0.15332472       0.91904361        6 
C      -1.70380974      -0.34041586       0.45506500        6 
C       0.96118110      -1.60337095       0.46580956        6 
O      -2.82599866       0.40995387       0.35017186        8 
O      -1.72465042      -1.55142418       0.42894770        8 
O       0.71756877      -1.75515353      -0.85079716        8 
O       1.28297351      -2.51032222       1.20278534        8 
C       0.64909615      -3.11610356      -1.29911717        6 
C      -4.04354680      -0.32915402       0.15267955        6 
C      -0.13922727       1.63792299      -0.40453275        6 
C       0.51772687       2.81931382       0.35307003        6 
C       1.85492595       2.17461090       0.80869252        6 
C       1.80457241       0.79022599       0.09370294        6 
O       0.99591417       1.06038440      -1.06021798        8 
H      -0.77889986       1.09505484       1.61638205        1 
H       1.14106725      -0.16875389       1.97550862        1 
H      -0.18368119      -3.62427158      -0.80449858        1 
H      -4.21584002      -1.01446132       0.98716674        1 
H       0.69401133       3.63997984      -0.34867737        1 
H      -0.09775843       3.19865962       1.17430573        1 
H       2.71695980       2.74725393       0.45473088        1 
H       1.94528087       2.07539676       1.89499346        1 
H       0.48046203      -3.06105903      -2.37549447        1 
H       1.57928143      -3.64804291      -1.08041927        1 
H      -3.99586917      -0.90671220      -0.77490307        1 
H      -4.83437444       0.41970837       0.09810443        1 
C       3.15039019       0.22543106      -0.30968024        6 
H       3.70641367       0.96803700      -0.89053967        1 
H       3.73670639      -0.03349190       0.57843818        1 
H       3.02710703      -0.67032461      -0.92292784        1 
C      -1.18528904       2.00510204      -1.43417355        6 
H      -0.74327628       2.69682381      -2.15822799        1 
H      -1.52810877       1.11561394      -1.97050514        1 
H      -2.05054951       2.47923201      -0.96541934        1 
