35
Lattice="0.0 0.0 0.0 0.0 0.0 0.0 0.0 0.0 0.0" Properties=species:S:1:pos:R:3:Z:I:1 pbc="F F F"
C      -0.33018297       0.79046543      -0.88614195        6 
C      -0.46046643      -0.78482515      -0.81357769        6 
C       1.07828359       1.22142811      -0.48176269        6 
C       0.87862688      -1.49455013      -0.74207273        6 
O       1.18597132       1.72383905       0.75928870        8 
O       2.02698850       1.09108081      -1.22868670        8 
O       1.41309077      -1.48291569       0.50126153        8 
O       1.40389124      -2.03619719      -1.68793309        8 
C       2.73321120      -2.04641758       0.59280189        6 
C       2.52763261       2.02372588       1.17852796        6 
C      -1.52745295       1.20203909       0.02050782        6 
C      -2.83595561       0.74018182      -0.70057045        6 
C      -2.90007702      -0.76068830      -0.32620456        6 
C      -1.51751745      -0.95657872       0.34196411        6 
O      -1.39916912       0.25909639       1.10036989        8 
H      -0.44748037       1.12660162      -1.91929045        1 
H      -0.88291304      -1.14279768      -1.75462375        1 
H       3.41566233      -1.50485781      -0.06791313        1 
H       2.98458696       2.76296960       0.51515318        1 
H      -3.69612289       1.29323415      -0.31300356        1 
H      -2.79053853       0.91450072      -1.78035056        1 
H      -3.68056747      -0.94837679       0.41731415        1 
H      -3.07061306      -1.42720119      -1.17727637        1 
H       3.02729505      -1.93287729       1.63687596        1 
H       2.72146077      -3.10192002       0.30710753        1 
H       3.13442725       1.11412591       1.16846586        1 
H       2.43502300       2.41438493       2.19206983        1 
C      -1.40244741      -2.16884523       1.24095858        6 
H      -2.23354284      -2.17950866       1.95336524        1 
H      -1.44630548      -3.08790390       0.64563806        1 
H      -0.46237904      -2.15441373       1.79287652        1 
C      -1.60141519       2.62933387       0.52658099        6 
H      -2.47605955       2.73513638       1.17642465        1 
H      -0.71060320       2.90676074       1.08739946        1 
H      -1.71933652       3.31789002      -0.31819096        1 
