35
Lattice="0.0 0.0 0.0 0.0 0.0 0.0 0.0 0.0 0.0" Properties=species:S:1:pos:R:3:Z:I:1 pbc="F F F"
C      -0.54686307       0.59789809       0.71293311        6 
C       0.83771345      -0.12346252       0.85659722        6 
C      -1.60277379      -0.22134835       0.00166105        6 
C       0.67943359      -1.62651000       0.65682408        6 
O      -2.82807249       0.05294638       0.50079040        8 
O      -1.41448408      -0.96965148      -0.93359430        8 
O       1.37282256      -2.15677395      -0.35982748        8 
O      -0.01814581      -2.27999289       1.40615241        8 
C       1.10668361      -3.54791668      -0.61298886        6 
C      -3.91701927      -0.62339008      -0.15039765        6 
C      -0.14848625       1.83072181      -0.17749632        6 
C       0.67894947       2.79843823       0.70959079        6 
C       2.04430390       2.06563428       0.77373143        6 
C       1.75489026       0.77373880      -0.04707722        6 
O       0.84155017       1.26570796      -1.04433347        8 
H      -0.95117213       0.91656132       1.67446430        1 
H       1.15837089      -0.04405220       1.90008784        1 
H       0.04977767      -3.67980203      -0.85828234        1 
H      -3.77585940      -1.70642000      -0.10174616        1 
H       0.76969175       3.76852699       0.21171561        1 
H       0.22001942       2.96562433       1.68873173        1 
H       2.82498627       2.64298561       0.26995483        1 
H       2.38721909       1.85815900       1.79232271        1 
H       1.73713643      -3.81460073      -1.46183493        1 
H       1.35457492      -4.15529000       0.26166594        1 
H      -3.98440005      -0.32110914      -1.19979811        1 
H      -4.81442674      -0.32574809       0.39302595        1 
C       2.97982004       0.17221508      -0.70530680        6 
H       3.55125100       0.96381216      -1.20058677        1 
H       3.62200031      -0.30571594       0.04212512        1 
H       2.69586747      -0.57721813      -1.44258523        1 
C      -1.26025022       2.46410194      -0.98805792        6 
H      -0.86603608       3.30880170      -1.56098294        1 
H      -1.67942164       1.73883313      -1.69152355        1 
H      -2.06059943       2.82439402      -0.33387198        1 
