35
Lattice="0.0 0.0 0.0 0.0 0.0 0.0 0.0 0.0 0.0" Properties=species:S:1:pos:R:3:Z:I:1 pbc="F F F"
C      -0.35550967       0.66787782      -0.78464985        6 
C      -0.09181536      -0.83882704      -0.47863577        6 
C       0.40011349       1.66278397       0.11943856        6 
C       1.32772583      -1.34291988      -0.30864276        6 
O       1.64468163       1.25092801       0.43650240        8 
O      -0.00445603       2.75722440       0.44709124        8 
O       2.13807537      -0.75964056      -1.21933936        8 
O       1.70135321      -2.19872962       0.46374845        8 
C       3.51939290      -1.13388559      -1.13223634        6 
C       2.39802390       2.15466320       1.26226120        6 
C      -1.88065888       0.68964584      -0.38159053        6 
C      -2.66454948      -0.41064646      -1.18083308        6 
C      -2.39959084      -1.68886773      -0.33842462        6 
C      -1.23695777      -1.19137573       0.54399615        6 
O      -1.75005264       0.10263992       0.93239568        8 
H      -0.15079159       0.92634568      -1.82762204        1 
H      -0.34492347      -1.35109271      -1.41835571        1 
H       3.64189426      -2.21314048      -1.25983477        1 
H       1.86281097       2.36074335       2.19286321        1 
H      -3.72792377      -0.16231362      -1.21980107        1 
H      -2.31325159      -0.49445446      -2.21514130        1 
H      -3.25854674      -1.93150112       0.29501987        1 
H      -2.14745786      -2.57239614      -0.93459486        1 
H       4.02223798      -0.59133322      -1.93371573        1 
H       3.92628396      -0.84383508      -0.15877536        1 
H       2.56986563       3.09795859       0.73626412        1 
H       3.34110311       1.64533435       1.46305498        1 
C      -0.90704396      -2.00164668       1.77547431        6 
H      -1.80427589      -2.07872798       2.39843529        1 
H      -0.56547920      -3.00214981       1.50267758        1 
H      -0.11100513      -1.52417744       2.35114909        1 
C      -2.64090311       2.00191860      -0.32842061        6 
H      -3.66902498       1.79957615      -0.01029914        1 
H      -2.18414473       2.71086597       0.35644715        1 
H      -2.67331776       2.45355001      -1.32645759        1 
