35
Lattice="0.0 0.0 0.0 0.0 0.0 0.0 0.0 0.0 0.0" Properties=species:S:1:pos:R:3:Z:I:1 pbc="F F F"
C      -0.62892264       0.47917884      -0.84971939        6 
C       0.19619490      -0.84710987      -0.65443401        6 
C       0.24358528       1.69818366      -0.56376707        6 
C       1.52860930      -0.63469149       0.03577531        6 
O      -0.20756620       2.52874394       0.38545956        8 
O       1.25976058       1.89963283      -1.19852144        8 
O       2.52825505      -1.22961266      -0.64625629        8 
O       1.68975164      -0.04207512       1.08244615        8 
C       3.83560641      -1.06280264      -0.07141496        6 
C       0.67776276       3.61649971       0.70925773        6 
C      -1.92783873       0.15436478      -0.03554366        6 
C      -2.73524899      -0.87087615      -0.89033300        6 
C      -1.93535387      -2.17936355      -0.66681146        6 
C      -0.78572635      -1.68294660       0.24578311        6 
O      -1.42847787      -0.67089900       1.03089781        8 
H      -0.86881926       0.58584727      -1.91262598        1 
H       0.38281462      -1.34810214      -1.60534263        1 
H       3.87639253      -1.50659450       0.92759503        1 
H       0.84966305       4.24760510      -0.16678315        1 
H      -3.75101125      -0.95603852      -0.49396282        1 
H      -2.81366043      -0.57665832      -1.94175725        1 
H      -2.53209518      -2.92268177      -0.12917637        1 
H      -1.57497403      -2.64382953      -1.58980914        1 
H       4.52093905      -1.57363958      -0.74852945        1 
H       4.08104466       0.00012522       0.00036695        1 
H       1.63297249       3.22012707       1.06264630        1 
H       0.17374306       4.17550510       1.49810187        1 
C      -0.15456177      -2.73173513       1.13736800        6 
H      -0.93100709      -3.25132836       1.70712716        1 
H       0.38860374      -3.46787560       0.53489522        1 
H       0.53995585      -2.26456656       1.83945461        1 
C      -2.77149958       1.28630562       0.51605586        6 
H      -3.67975401       0.87412735       0.96754286        1 
H      -2.22486118       1.85183445       1.26876389        1 
H      -3.06347394       1.97103182      -0.28735890        1 
