35
Lattice="0.0 0.0 0.0 0.0 0.0 0.0 0.0 0.0 0.0" Properties=species:S:1:pos:R:3:Z:I:1 pbc="F F F"
C      -0.49515378       0.72169623      -0.69358436        6 
C       0.08902235      -0.72744634      -0.62302474        6 
C       0.25075100       1.75645344       0.14376923        6 
C       1.50846986      -0.88227979      -0.11818115        6 
O       0.95982032       2.57597617      -0.67442475        8 
O       0.18683874       1.91002347       1.33967839        8 
O       2.14954095      -1.82887397      -0.85016869        8 
O       2.03169076      -0.30027907       0.80568973        8 
C       3.49059285      -2.12220885      -0.42360622        6 
C       1.74771964       3.56441715       0.00997122        6 
C      -1.93062607       0.45119486      -0.12322838        6 
C      -2.67842223      -0.48882358      -1.12215913        6 
C      -2.12293884      -1.88399356      -0.73202798        6 
C      -1.00069172      -1.47941165       0.24944669        6 
O      -1.63049957      -0.42269131       0.97673766        8 
H      -0.51891494       1.07692651      -1.72579951        1 
H       0.08756772      -1.15803782      -1.62668537        1 
H       3.49473883      -2.48253330       0.60917422        1 
H       2.45296537       3.07868545       0.69006828        1 
H      -3.75871314      -0.42288556      -0.96490197        1 
H      -2.47911063      -0.22089145      -2.16498363        1 
H      -2.87298883      -2.47121265      -0.19300521        1 
H      -1.76941609      -2.47788459      -1.58037850        1 
H       3.85235077      -2.89475653      -1.10300332        1 
H       4.11637699      -1.22756375      -0.48633269        1 
H       1.10575908       4.23600931       0.58744033        1 
H       2.27566661       4.11314776      -0.77114212        1 
C      -0.49040845      -2.54882551       1.18905094        6 
H      -1.32479627      -2.98455826       1.74690236        1 
H       0.00993216      -3.34380989       0.62611632        1 
H       0.21861035      -2.11684254       1.90095307        1 
C      -2.73692357       1.64744822       0.33797823        6 
H      -3.68724414       1.30462972       0.75909444        1 
H      -2.19927423       2.21052690       1.10203640        1 
H      -2.95437457       2.30648815      -0.51035354        1 
