35
Lattice="0.0 0.0 0.0 0.0 0.0 0.0 0.0 0.0 0.0" Properties=species:S:1:pos:R:3:Z:I:1 pbc="F F F"
C       0.08404017       0.84916715       0.58435735        6 
C       0.36579711      -0.63847430       0.89195463        6 
C      -1.34197798       1.35145818       0.47399356        6 
C      -0.39839984      -1.65952771       0.05380683        6 
O      -2.23113313       0.49590346       1.01936362        8 
O      -1.65219567       2.43444301       0.02323723        8 
O      -1.23544063      -1.11891149      -0.85166754        8 
O      -0.28507789      -2.85817557       0.21108803        8 
C      -1.93048232      -2.06166167      -1.68191930        6 
C      -3.59997114       0.92821472       0.98046927        6 
C       1.15057103       1.18610370      -0.53289128        6 
C       2.38689887       1.68061874       0.24575614        6 
C       2.72516813       0.40230221       1.06446758        6 
C       1.85583651      -0.68735998       0.35213861        6 
O       1.62263250      -0.11325310      -0.95021032        8 
H       0.39853448       1.39826886       1.48347564        1 
H       0.26471105      -0.90950639       1.94473863        1 
H      -2.55152475      -2.72302372      -1.07109173        1 
H      -3.92428211       1.06680423      -0.05512060        1 
H       3.18769437       1.92058498      -0.46050980        1 
H       2.18937764       2.56450034       0.86089426        1 
H       3.78524680       0.14424609       0.99770416        1 
H       2.47735546       0.49242460       2.12769634        1 
H      -2.54697029      -1.46155594      -2.35210825        1 
H      -1.22001794      -2.66806250      -2.25043369        1 
H      -3.72602773       1.87212868       1.51846476        1 
H      -4.17183910       0.13211034       1.45860123        1 
C       2.54734753      -2.03056885       0.23782132        6 
H       3.53245485      -1.88402494      -0.21698722        1 
H       2.68396793      -2.46848414       1.23196083        1 
H       1.97906785      -2.73611879      -0.36717751        1 
C       0.70267195       1.98455445      -1.73232138        6 
H       1.53800510       2.08772102      -2.43248318        1 
H      -0.12165101       1.47286971      -2.23729010        1 
H       0.35159891       2.97193694      -1.42772963        1 
