35
Lattice="0.0 0.0 0.0 0.0 0.0 0.0 0.0 0.0 0.0" Properties=species:S:1:pos:R:3:Z:I:1 pbc="F F F"
C       0.24180237       0.73901709       0.62326087        6 
C       0.33862321      -0.83832374       0.65409669        6 
C      -1.07703405       1.25185988       0.08387905        6 
C      -0.73673523      -1.50186266      -0.20120782        6 
O      -1.91614483       1.55086446       1.10007132        8 
O      -1.39068227       1.33800633      -1.08502342        8 
O      -1.94566187      -1.33501454       0.39273429        8 
O      -0.59945249      -2.08875030      -1.24852411        8 
C      -3.06738751      -1.79185357      -0.38226682        6 
C      -3.24224099       1.93082913       0.70229101        6 
C       1.54042331       1.11107426      -0.18741612        6 
C       2.69393809       1.10046507       0.84333125        6 
C       2.75608421      -0.40765420       1.19631754        6 
C       1.79287718      -1.03236962       0.13514336        6 
O       1.82713669      -0.07809108      -0.93920556        8 
H       0.32183667       1.11099545       1.64691413        1 
H       0.19998275      -1.20075059       1.67706303        1 
H      -2.98426385      -2.86195477      -0.59041363        1 
H      -3.71746509       1.11872047       0.14467406        1 
H       3.61365322       1.42954491       0.35026831        1 
H       2.51411669       1.75235994       1.70422541        1 
H       3.76463664      -0.81258889       1.07625745        1 
H       2.43224690      -0.62235804       2.22019933        1 
H      -3.94741492      -1.58600355       0.22847654        1 
H      -3.11326886      -1.24455174      -1.32800965        1 
H      -3.21728480       2.82395541       0.07149895        1 
H      -3.78222590       2.12835684       1.62889256        1 
C       2.20886489      -2.41056593      -0.34017635        6 
H       3.25058830      -2.37700368      -0.67503451        1 
H       2.13645438      -3.13054853       0.48343844        1 
H       1.57793766      -2.74645337      -1.16137235        1 
C       1.48155770       2.31544749      -1.10216980        6 
H       2.45463112       2.45390316      -1.58355220        1 
H       0.71716444       2.17617440      -1.86728711        1 
H       1.24601618       3.21998964      -0.52985863        1 
