35
Lattice="0.0 0.0 0.0 0.0 0.0 0.0 0.0 0.0 0.0" Properties=species:S:1:pos:R:3:Z:I:1 pbc="F F F"
C      -0.70194757      -0.17563517      -0.68189952        6 
C       0.85713407      -0.23949912      -0.67412138        6 
C      -1.28621854       1.18786451      -0.34912049        6 
C       1.51539501       0.85869271       0.15146098        6 
O      -2.62951022       1.12587047      -0.22567001        8 
O      -0.67074491       2.23136891      -0.30627650        8 
O       2.32714365       1.61021819      -0.62612411        8 
O       1.39525053       1.01470757       1.34567340        8 
C       2.93240574       2.72491809       0.04692652        6 
C      -3.28263650       2.38518646       0.01410962        6 
C      -1.08398919      -1.44112640       0.19440008        6 
C      -0.98167389      -2.66301276      -0.75396619        6 
C       0.54992774      -2.72915757      -0.99595865        6 
C       1.07712253      -1.64005588      -0.01398024        6 
O       0.07725751      -1.62766845       1.01413397        8 
H      -1.06285471      -0.35177757      -1.70263537        1 
H       1.26124510      -0.19256743      -1.68718653        1 
H       3.55001414       2.38407468       0.88298928        1 
H      -3.10635833       3.07186708      -0.81857133        1 
H      -1.33436576      -3.55364228      -0.22527272        1 
H      -1.57430676      -2.55414468      -1.66811018        1 
H       0.95714578      -3.70736576      -0.72387244        1 
H       0.83908963      -2.52758930      -2.03247724        1 
H       3.54326530       3.22702351      -0.70455158        1 
H       2.15613473       3.39513253       0.42669025        1 
H      -2.90762192       2.84031001       0.93467082        1 
H      -4.34380722       2.15080012       0.10381315        1 
C       2.44719656      -1.91186847       0.57098886        6 
H       2.46429425      -2.90792162       1.02406682        1 
H       3.21065773      -1.87441343      -0.21411584        1 
H       2.69009052      -1.17580474       1.34014839        1 
C      -2.31751750      -1.39686038       1.06986474        6 
H      -2.37080663      -2.32630100       1.64584023        1 
H      -2.27288624      -0.55656098       1.76651317        1 
H      -3.22297025      -1.29696889       0.46693169        1 
