35
Lattice="0.0 0.0 0.0 0.0 0.0 0.0 0.0 0.0 0.0" Properties=species:S:1:pos:R:3:Z:I:1 pbc="F F F"
C      -0.84484147      -0.42172997      -0.64003963        6 
C       0.67887284      -0.05690168      -0.70904546        6 
C      -1.68622173       0.57836667       0.14151873        6 
C       1.02451485       1.37402956      -0.31766190        6 
O      -2.44586298       1.31215133      -0.70091086        8 
O      -1.71241295       0.69433582       1.34648956        8 
O       2.35752208       1.53913276      -0.18702749        8 
O       0.24023649       2.29211674      -0.21060703        8 
C       2.78193271       2.87790167       0.12420217        6 
C      -3.16598286       2.38374805      -0.07369438        6 
C      -0.78550441      -1.82247458       0.04484435        6 
C      -0.14221636      -2.81989034      -0.96334104        6 
C       1.36354730      -2.46806640      -0.84534578        6 
C       1.31856549      -1.25394106       0.11959391        6 
O       0.25938851      -1.62843802       1.00890281        8 
H      -1.26683976      -0.48685387      -1.64554837        1 
H       1.02646402      -0.12945298      -1.74583915        1 
H       2.34106605       3.20823411       1.06862805        1 
H      -2.46087723       3.07295108       0.39895659        1 
H      -0.33850855      -3.84789697      -0.64568792        1 
H      -0.54071794      -2.70302069      -1.97603847        1 
H       1.92271399      -3.28205446      -0.37393592        1 
H       1.84479301      -2.24089581      -1.80189030        1 
H       3.86841396       2.82778018       0.20192435        1 
H       2.48172954       3.56954386      -0.66800232        1 
H      -3.85533560       1.99826090       0.68321397        1 
H      -3.71377189       2.88018855      -0.87595760        1 
C       2.58174148      -1.02651396       0.92290911        6 
H       2.82915186      -1.95368032       1.44966697        1 
H       3.41674157      -0.74677603       0.27671063        1 
H       2.43677116      -0.23484183       1.66064728        1 
C      -2.05142559      -2.32363790       0.70949800        6 
H      -1.86585848      -3.30355912       1.16051414        1 
H      -2.38018007      -1.63488061       1.48897159        1 
H      -2.85056942      -2.43223527      -0.03284560        1 
