35
Lattice="0.0 0.0 0.0 0.0 0.0 0.0 0.0 0.0 0.0" Properties=species:S:1:pos:R:3:Z:I:1 pbc="F F F"
C       0.49771843       0.79804799       0.66203352        6 
C       0.03920235      -0.68629353       0.71375468        6 
C      -0.53386276       1.87630030       0.37976558        6 
C      -1.14600177      -1.00888443      -0.17698393        6 
O      -1.79725770       1.44129129       0.56550525        8 
O      -0.26377554       3.02371769       0.09574365        8 
O      -1.98874515      -1.86364722       0.45262847        8 
O      -1.30692839      -0.63197520      -1.31557825        8 
C      -3.12016235      -2.27903697      -0.32876278        6 
C      -2.82994167       2.40514237       0.30291760        6 
C       1.78442983       0.72129511      -0.25933226        6 
C       2.94517475       0.31719486       0.68192984        6 
C       2.51289340      -1.12142918       1.08072135        6 
C       1.31545658      -1.37499382       0.11306938        6 
O       1.59823279      -0.50451241      -0.98651880        8 
H       0.83761917       1.06891933       1.66994485        1 
H      -0.17473160      -1.02422375       1.72918121        1 
H      -2.79489205      -2.80158893      -1.23313181        1 
H      -2.79451544       2.71777061      -0.74413790        1 
H       3.87781753       0.30269926       0.11012109        1 
H       3.07373694       0.99598248       1.53081484        1 
H       3.30840427      -1.84939903       0.89770419        1 
H       2.21747537      -1.20972520       2.13138767        1 
H      -3.69471662      -2.94625629       0.31505120        1 
H      -3.72099933      -1.41311687      -0.62180263        1 
H      -2.71099366       3.28335747       0.94340327        1 
H      -3.76794642       1.89260250       0.51887744        1 
C       1.14826490      -2.80385444      -0.36097102        6 
H       2.09247325      -3.17143175      -0.77464868        1 
H       0.85418204      -3.45228814       0.47108041        1 
H       0.38657673      -2.86628421      -1.14348484        1 
C       2.05276571       1.85325962      -1.22263547        6 
H       2.95072504       1.62201882      -1.80503266        1 
H       1.20984824       1.97731199      -1.90632742        1 
H       2.19493244       2.79520394      -0.68935362        1 
