35
Lattice="0.0 0.0 0.0 0.0 0.0 0.0 0.0 0.0 0.0" Properties=species:S:1:pos:R:3:Z:I:1 pbc="F F F"
C      -0.03158985       0.59216671      -0.74264745        6 
C      -0.43086025      -0.90981611      -0.60575967        6 
C       1.16166461       0.99328237       0.10409708        6 
C       0.69701575      -1.83443928      -0.17032328        6 
O       1.61462535       2.20950303      -0.27851954        8 
O       1.61614646       0.38348071       1.04704588        8 
O       1.77545118      -1.61167242      -0.96308783        8 
O       0.65730395      -2.70803255       0.66432300        8 
C       2.94740262      -2.36414794      -0.61436298        6 
C       2.67913242       2.74521446       0.52530493        6 
C      -1.33126867       1.26771825      -0.15511440        6 
C      -2.50397773       0.97010253      -1.13781372        6 
C      -2.88134465      -0.48271123      -0.74763793        6 
C      -1.74666852      -0.83830819       0.24790898        6 
O      -1.60574297       0.40833492       0.95659304        8 
H       0.14979842       0.89941180      -1.77443423        1 
H      -0.67717999      -1.28063199      -1.60872354        1 
H       2.74050486      -3.43762355      -0.63757914        1 
H       3.54072575       2.07191511       0.52026638        1 
H      -3.33092946       1.66336687      -0.95928075        1 
H      -2.20133526       1.07802208      -2.18420363        1 
H      -3.83859805      -0.50921702      -0.21881555        1 
H      -2.94128528      -1.17195041      -1.59559362        1 
H       3.69912511      -2.10044352      -1.35970265        1 
H       3.28306250      -2.08394692       0.38816453        1 
H       2.34554610       2.88331037       1.55795328        1 
H       2.93511466       3.70344914       0.07219022        1 
C      -2.06681449      -1.95448787       1.21817225        6 
H      -3.02877025      -1.74379502       1.69739401        1 
H      -2.13233803      -2.91305066       0.69554369        1 
H      -1.29223632      -2.04198968       1.97937229        1 
C      -1.23698956       2.70625632       0.31034601        6 
H      -2.21269803       3.02773318       0.68792965        1 
H      -0.50701373       2.81256117       1.11652057        1 
H      -0.94021095       3.36288464      -0.51248719        1 
