35
Lattice="0.0 0.0 0.0 0.0 0.0 0.0 0.0 0.0 0.0" Properties=species:S:1:pos:R:3:Z:I:1 pbc="F F F"
C       0.23333395       0.90027770       0.68270109        6 
C       0.37405061      -0.63947675       0.91189812        6 
C      -1.12384082       1.52215320       0.39738028        6 
C      -0.75872509      -1.52448910       0.41766574        6 
O      -2.15507677       0.66485667       0.51455430        8 
O      -1.27168461       2.70179539       0.15387942        8 
O      -0.96379623      -1.41735264      -0.91239892        8 
O      -1.36926944      -2.29343733       1.12880638        8 
C      -2.05383218      -2.19765769      -1.42055501        6 
C      -3.46220736       1.22751801       0.31148740        6 
C       1.37269809       1.17980929      -0.38650916        6 
C       2.69413730       1.28483365       0.41290761        6 
C       2.86088190      -0.17715763       0.90786181        6 
C       1.71340459      -0.90695476       0.14377599        6 
O       1.53992954      -0.09527697      -1.02451800        8 
H       0.52196011       1.40812567       1.61001445        1 
H       0.46544273      -0.87142815       1.97474209        1 
H      -2.99657447      -1.86690048      -0.97334126        1 
H      -3.55737583       1.60803929      -0.70941471        1 
H       3.50205714       1.56474145      -0.26986112        1 
H       2.65763971       2.02612028       1.21731502        1 
H       3.83072282      -0.59302691       0.61971963        1 
H       2.76400702      -0.28158891       1.99317792        1 
H      -2.06000112      -2.02701324      -2.49779766        1 
H      -1.91194545      -3.25891321      -1.19763444        1 
H      -3.64089179       2.04593538       1.01388461        1 
H      -4.15953266       0.40776346       0.48606034        1 
C       2.00532344      -2.34471730      -0.23286087        6 
H       2.95046433      -2.39901946      -0.78181684        1 
H       2.08704625      -2.96551103       0.66563260        1 
H       1.21410496      -2.74813537      -0.86921033        1 
C       1.13665359       2.25001727      -1.42725149        6 
H       1.99822389       2.28979532      -2.10158536        1 
H       0.24254200       2.02761006      -2.01551177        1 
H       0.99592305       3.22544206      -0.95742797        1 
