35
Lattice="0.0 0.0 0.0 0.0 0.0 0.0 0.0 0.0 0.0" Properties=species:S:1:pos:R:3:Z:I:1 pbc="F F F"
C       0.16670719       0.89716155       0.63396830        6 
C       0.36549446      -0.62191093       0.89647624        6 
C      -1.24695308       1.38926512       0.38236289        6 
C      -0.61069886      -1.56489103       0.21631783        6 
O      -2.15778739       0.58746239       0.98056488        8 
O      -1.54682699       2.40987118      -0.19724561        8 
O      -1.07971492      -1.08385423      -0.95342927        8 
O      -0.89503870      -2.66075893       0.65131633        8 
C      -2.00025769      -1.93919457      -1.64611961        6 
C      -3.52937807       0.97681686       0.80545241        6 
C       1.30111574       1.21278744      -0.42079110        6 
C       2.58059380       1.46478982       0.41187173        6 
C       2.80967344       0.05875253       1.03192418        6 
C       1.78191095      -0.81098933       0.24265249        6 
O       1.60740791      -0.08001623      -0.97814754        8 
H       0.42568663       1.42147231       1.56375795        1 
H       0.35937051      -0.88251625       1.95611329        1 
H      -2.89496185      -2.10820252      -1.03887542        1 
H      -3.78818345       0.98162718      -0.25746783        1 
H       3.39787093       1.73479853      -0.26375811        1 
H       2.46882059       2.26528816       1.14993326        1 
H       3.82720025      -0.30221834       0.85703928        1 
H       2.62814376       0.02664067       2.11128689        1 
H      -2.25345852      -1.41166501      -2.56625734        1 
H      -1.53801883      -2.90476431      -1.86894813        1 
H      -3.70483232       1.97461908       1.21717810        1 
H      -4.11543520       0.22920704       1.34090369        1 
C       2.21496001      -2.23454025      -0.03822399        6 
H       3.20412858      -2.23420539      -0.50622223        1 
H       2.26183806      -2.80956428       0.89179700        1 
H       1.51333218      -2.73486450      -0.71073060        1 
C       1.01510924       2.19410162      -1.53350228        6 
H       1.89131883       2.25566805      -2.18748254        1 
H       0.15392789       1.86801952      -2.12002492        1 
H       0.79111720       3.18463867      -1.13216757        1 
