35
Lattice="0.0 0.0 0.0 0.0 0.0 0.0 0.0 0.0 0.0" Properties=species:S:1:pos:R:3:Z:I:1 pbc="F F F"
C      -0.69004827       0.63508238      -0.84380135        6 
C      -0.00518683      -0.76645126      -0.77041923        6 
C       0.04256980       1.79347506      -0.18604407        6 
C       1.51287515      -0.67211705      -0.83076429        6 
O       1.05683808       1.40949887       0.61271946        8 
O      -0.27112745       2.95306244      -0.35368379        8 
O       2.17063085      -1.34308625       0.13089080        8 
O       2.07157534      -0.08029376      -1.73075534        8 
C       3.60298875      -1.24568586       0.06030957        6 
C       1.77043106       2.47448232       1.26023092        6 
C      -1.99004786       0.33373026      -0.01489151        6 
C      -2.80401100      -0.76507163      -0.76658910        6 
C      -2.07578068      -2.06060883      -0.32478371        6 
C      -0.82683206      -1.47443213       0.37895268        6 
O      -1.42071342      -0.37486949       1.09823104        8 
H      -0.91310047       0.94843217      -1.86525137        1 
H      -0.23386886      -1.27814374      -1.71241702        1 
H       3.91434650      -0.20030221       0.13905085        1 
H       1.08861789       3.07852014       1.86456725        1 
H      -3.84896692      -0.75453196      -0.44420656        1 
H      -2.79067043      -0.60889508      -1.85006955        1 
H      -2.66955033      -2.61376697       0.40909784        1 
H      -1.83202574      -2.73849769      -1.14921342        1 
H       3.97720780      -1.82621809       0.90424205        1 
H       3.97160910      -1.65288725      -0.88518649        1 
H       2.25151895       3.11561119       0.51623727        1 
H       2.51497079       1.98544356       1.88901764        1 
C      -0.13786845      -2.40594807       1.35195178        6 
H      -0.88396388      -2.81973649       2.03859940        1 
H       0.35156569      -3.22845102       0.82285038        1 
H       0.61897350      -1.87307612       1.92810613        1 
C      -2.81351555       1.51258054       0.45974488        6 
H      -3.66785861       1.14637666       1.03766723        1 
H      -2.22916259       2.18779991       1.08708422        1 
H      -3.18400625       2.08494525      -0.39596618        1 
