35
Lattice="0.0 0.0 0.0 0.0 0.0 0.0 0.0 0.0 0.0" Properties=species:S:1:pos:R:3:Z:I:1 pbc="F F F"
C       0.22092680       0.73676069       0.61532406        6 
C       0.35653948      -0.83822773       0.65426925        6 
C      -1.10209175       1.24114482       0.07654424        6 
C      -0.71654334      -1.56694849      -0.15229820        6 
O      -1.94404940       1.53217252       1.09271340        8 
O      -1.41134497       1.33847830      -1.09252625        8 
O      -1.94164010      -1.26353905       0.34128550        8 
O      -0.56008225      -2.31389331      -1.09004357        8 
C      -3.05042393      -1.78768417      -0.40897714        6 
C      -3.26678376       1.91967006       0.69315973        6 
C       1.51018503       1.13525734      -0.19998797        6 
C       2.66738353       1.15326335       0.82624183        6 
C       2.76552233      -0.35140057       1.18217506        6 
C       1.81250398      -1.00196388       0.12596417        6 
O       1.81819897      -0.04953650      -0.95089514        8 
H       0.29770391       1.11350938       1.63746058        1 
H       0.24691242      -1.18741594       1.68664482        1 
H      -2.97340163      -2.87329638      -0.50903248        1 
H      -3.73973251       1.11837860       0.11826435        1 
H       3.57769223       1.50213499       0.32933177        1 
H       2.47493779       1.80362829       1.68548372        1 
H       3.78261017      -0.73297770       1.05803390        1 
H       2.45241574      -0.57195859       2.20808357        1 
H      -3.94116907      -1.51481388       0.15835547        1 
H      -3.07131222      -1.33300667      -1.40340767        1 
H      -3.23717157       2.82336125       0.07757049        1 
H      -3.81267276       2.10260578       1.61936700        1 
C       2.27039323      -2.36749965      -0.34856896        6 
H       3.31687402      -2.30446385      -0.66399981        1 
H       2.20137815      -3.09367271       0.46968082        1 
H       1.66118258      -2.71755842      -1.17915708        1 
C       1.42819000       2.33741579      -1.11639045        6 
H       2.39964531       2.49459332      -1.59534174        1 
H       0.66836410       2.18336890      -1.88282811        1 
H       1.17377980       3.23745417      -0.54510828        1 
