35
Lattice="0.0 0.0 0.0 0.0 0.0 0.0 0.0 0.0 0.0" Properties=species:S:1:pos:R:3:Z:I:1 pbc="F F F"
C      -0.39513307       0.41123881      -0.88750077        6 
C       0.45396691      -0.81818576      -0.45873861        6 
C      -0.07613270       1.61134559       0.03792170        6 
C       1.95010492      -0.69009796      -0.24611559        6 
O      -1.14547458       2.37619857       0.32940308        8 
O       1.00672961       1.82787047       0.53855626        8 
O       2.47101736       0.25902543      -1.04745966        8 
O       2.61663837      -1.40531044       0.47147656        8 
C       3.88305656       0.47014598      -0.90752578        6 
C      -0.90043381       3.43589072       1.26925329        6 
C      -1.81029176      -0.21056964      -0.55898108        6 
C      -1.97379888      -1.60030315      -1.27588537        6 
C      -1.26308359      -2.57180314      -0.29452284        6 
C      -0.49205022      -1.55328777       0.56759399        6 
O      -1.54462005      -0.58714588       0.81014144        8 
H      -0.24097053       0.69099116      -1.93358477        1 
H       0.48006962      -1.45674212      -1.35431869        1 
H       4.43777237      -0.45370843      -1.09515140        1 
H      -0.15637401       4.13554271       0.87871538        1 
H      -3.03388512      -1.84050243      -1.38832896        1 
H      -1.53610889      -1.59897726      -2.27993754        1 
H      -1.98762278      -3.10529329       0.32859803        1 
H      -0.61416440      -3.30554611      -0.78334627        1 
H       4.13974440       1.23108697      -1.64547281        1 
H       4.10772648       0.82577678       0.10186656        1 
H      -0.53906521       3.02439583       2.21529222        1 
H      -1.86259569       3.93117805       1.40461591        1 
C       0.08341115      -2.02914867       1.87952535        6 
H      -0.72016579      -2.45483229       2.48965628        1 
H       0.85596633      -2.78096347       1.71001021        1 
H       0.53935745      -1.19619660       2.42103389        1 
C      -3.07908365       0.61524284      -0.68526401        6 
H      -3.93195493      -0.00244167      -0.38501877        1 
H      -3.05748246       1.50861793      -0.06932040        1 
H      -3.22522021       0.91039109      -1.73081162        1 
