35
Lattice="0.0 0.0 0.0 0.0 0.0 0.0 0.0 0.0 0.0" Properties=species:S:1:pos:R:3:Z:I:1 pbc="F F F"
C      -0.34077298       0.57728979      -0.89988926        6 
C      -0.19916099      -0.96521293      -0.56173019        6 
C       0.85957029       1.35950776      -0.37866136        6 
C       1.19150635      -1.28516730      -0.04398183        6 
O       0.76026099       1.68492764       0.92135353        8 
O       1.83441315       1.60778829      -1.05937648        8 
O       2.03203527      -1.39356120      -1.09537530        8 
O       1.55321905      -1.34190325       1.11198370        8 
C       3.43119823      -1.43955905      -0.77200355        6 
C       1.94225686       2.25258822       1.50909201        6 
C      -1.72576797       0.87264144      -0.24714391        6 
C      -2.80579072       0.11734563      -1.08242889        6 
C      -2.66202671      -1.33303366      -0.55399229        6 
C      -1.43030006      -1.19637752       0.37878311        6 
O      -1.65979618       0.09811953       0.96020827        8 
H      -0.34309895       0.73263285      -1.98008109        1 
H      -0.31224729      -1.53596861      -1.48742380        1 
H       3.64252318      -2.25030690      -0.06996732        1 
H       2.27546537       3.12753819       0.94504479        1 
H      -3.79668938       0.52725701      -0.86731964        1 
H      -2.63615499       0.20840871      -2.16005373        1 
H      -3.53015453      -1.62449749       0.04489163        1 
H      -2.52644724      -2.08257340      -1.34006859        1 
H       3.94480698      -1.60182276      -1.71988732        1 
H       3.73538628      -0.48471204      -0.33443910        1 
H       2.73952955       1.50389093       1.52601147        1 
H       1.65812254       2.52643111       2.52517141        1 
C      -1.31089673      -2.25348919       1.45591466        6 
H      -2.24586570      -2.30200724       2.02304558        1 
H      -1.12804246      -3.23561908       1.00538984        1 
H      -0.48785235      -2.02195726       2.13212439        1 
C      -2.06771534       2.32040407       0.04253068        6 
H      -3.04965260       2.37420490       0.52304689        1 
H      -1.33002751       2.77588386       0.70387529        1 
H      -2.11011558       2.89133577      -0.89198695        1 
