35
Lattice="0.0 0.0 0.0 0.0 0.0 0.0 0.0 0.0 0.0" Properties=species:S:1:pos:R:3:Z:I:1 pbc="F F F"
C      -0.00454654       0.82127986       0.68239703        6 
C       0.56285429      -0.63298784       0.76679765        6 
C      -1.28877629       1.01697549      -0.11371538        6 
C      -0.30746428      -1.85812684       0.55822295        6 
O      -2.27460991       1.46070468       0.70850087        8 
O      -1.43170995       0.90004874      -1.30837149        8 
O      -1.46007303      -1.63597069      -0.09292462        8 
O       0.03921136      -2.95836285       0.93989285        8 
C      -2.27316694      -2.79553769      -0.33804387        6 
C      -3.53313097       1.70005244       0.05967253        6 
C       1.19240568       1.52281745      -0.05265125        6 
C       2.44200245       1.46633127       0.88313838        6 
C       2.97385678       0.03123267       0.62414865        6 
C       1.81556296      -0.55483984      -0.21259077        6 
O       1.49850786       0.55194857      -1.06257436        8 
H      -0.16642453       1.22871568       1.68235943        1 
H       0.94482569      -0.79260146       1.77829574        1 
H      -2.59161621      -3.24721941       0.60582095        1 
H      -3.90755702       0.77983860      -0.39882539        1 
H       3.16951353       2.22955648       0.59233331        1 
H       2.17748880       1.64479690       1.93065543        1 
H       3.88086327       0.05086697       0.01195829        1 
H       3.18640111      -0.53794213       1.53416755        1 
H      -3.13065950      -2.43132026      -0.90424957        1 
H      -1.71455485      -3.53695282      -0.91537891        1 
H      -3.42773516       2.46052097      -0.71960181        1 
H      -4.20981281       2.04235817       0.84371776        1 
C       2.11720878      -1.78560030      -1.03597426        6 
H       2.98297415      -1.59526449      -1.67759440        1 
H       2.32564854      -2.64138292      -0.38897092        1 
H       1.26182306      -2.03213046      -1.67259641        1 
C       0.92598101       2.88039458      -0.66958859        6 
H       1.82458963       3.22773932      -1.18866433        1 
H       0.10730728       2.82855226      -1.38939327        1 
H       0.67471996       3.60765130       0.11067030        1 
