35
Lattice="0.0 0.0 0.0 0.0 0.0 0.0 0.0 0.0 0.0" Properties=species:S:1:pos:R:3:Z:I:1 pbc="F F F"
C      -0.77011733      -0.12554176      -0.75764515        6 
C       0.77652958      -0.32319391      -0.76315896        6 
C      -1.21749453       1.08753015       0.03468935        6 
C       1.51208323       1.00353432      -0.61649081        6 
O      -2.43510658       1.49658610      -0.38889096        8 
O      -0.63742776       1.57855610       0.97783429        8 
O       2.58983289       0.96707566       0.18315157        8 
O       1.19722580       1.97689126      -1.26920384        8 
C       3.29895302       2.21394527       0.29908956        6 
C      -3.00979063       2.58019053       0.35996725        6 
C      -1.21920114      -1.41838192       0.01312572        6 
C      -0.89349375      -2.64966901      -0.88108580        6 
C       0.63368176      -2.80778484      -0.65372946        6 
C       0.95113143      -1.55339478       0.20598454        6 
O      -0.22198379      -1.49008527       1.03864863        8 
H      -1.20286903      -0.07493297      -1.75793304        1 
H       1.07262689      -0.63532651      -1.77191621        1 
H       2.63713766       2.98490444       0.70207339        1 
H      -2.34938704       3.45117959       0.34024611        1 
H      -1.44478600      -3.52542593      -0.52625652        1 
H      -1.16762690      -2.48634536      -1.92822677        1 
H       0.85296918      -3.70661580      -0.06968102        1 
H       1.21738658      -2.85542314      -1.57836395        1 
H       4.12548088       2.01602957       0.98224663        1 
H       3.67041152       2.53674868      -0.67750889        1 
H      -3.17243531       2.28264481       1.40036965        1 
H      -3.95918756       2.80343752      -0.12799392        1 
C       2.18310954      -1.67295923       1.07691776        6 
H       2.12696309      -2.60775324       1.64438741        1 
H       3.09148435      -1.68195715       0.46789222        1 
H       2.24614767      -0.83631719       1.77289702        1 
C      -2.60536304      -1.40931029       0.62456436        6 
H      -2.79062483      -2.36280114       1.12882918        1 
H      -2.70067365      -0.60891462       1.36355656        1 
H      -3.36714085      -1.26204336      -0.14701541        1 
