35
Lattice="0.0 0.0 0.0 0.0 0.0 0.0 0.0 0.0 0.0" Properties=species:S:1:pos:R:3:Z:I:1 pbc="F F F"
C      -0.88715330      -0.29088380      -0.66071870        6 
C       0.67041018      -0.14211487      -0.68923296        6 
C      -1.60445493       0.79107938       0.13979376        6 
C       1.21921336       1.21669747      -0.28695979        6 
O      -2.23372049       1.64611692      -0.69799655        8 
O      -1.66500088       0.86563791       1.34594685        8 
O       2.57009172       1.21313526      -0.34527379        8 
O       0.57988222       2.20796403      -0.00965131        8 
C       3.20101153       2.46204224      -0.01230866        6 
C      -2.83753416       2.77667990      -0.05136473        6 
C      -1.02750978      -1.70153882      -0.00651605        6 
C      -0.45978106      -2.75503095      -1.00630512        6 
C       1.06968581      -2.61662086      -0.78651558        6 
C       1.12387313      -1.40098883       0.17092604        6 
O      -0.01278245      -1.64471013       1.00697091        8 
H      -1.28946890      -0.26915136      -1.67601059        1 
H       1.03343111      -0.28039034      -1.71327345        1 
H       2.93707871       2.76477804       1.00475230        1 
H      -2.06842460       3.36325641       0.45871189        1 
H      -0.81604479      -3.75441271      -0.74026771        1 
H      -0.77248106      -2.55706218      -2.03682393        1 
H       1.47445932      -3.49371429      -0.27259700        1 
H       1.64163485      -2.46813146      -1.70814156        1 
H       4.27276115       2.27885613      -0.09473582        1 
H       2.88825240       3.24649980      -0.70725665        1 
H      -3.58564595       2.45322685       0.67830955        1 
H      -3.30356628       3.35850153      -0.84796317        1 
C       2.36676882      -1.29591277       1.02771528        6 
H       2.48073456      -2.22486550       1.59540893        1 
H       3.25564151      -1.13925259       0.41277764        1 
H       2.28385146      -0.46613671       1.73450905        1 
C      -2.37225014      -2.06091806       0.59108726        6 
H      -2.31858498      -3.05822263       1.03906132        1 
H      -2.65919261      -1.34531367       1.36273590        1 
H      -3.14177726      -2.07569780      -0.18940598        1 
