35
Lattice="0.0 0.0 0.0 0.0 0.0 0.0 0.0 0.0 0.0" Properties=species:S:1:pos:R:3:Z:I:1 pbc="F F F"
C      -0.31610442       0.79307589      -0.89381129        6 
C      -0.48779757      -0.77670021      -0.82635507        6 
C       1.11323422       1.19254016      -0.53792519        6 
C       0.81049127      -1.54774556      -0.69208772        6 
O       1.27453975       1.68637650       0.70011652        8 
O       2.03060120       1.04474519      -1.32001924        8 
O       1.39131530      -1.37796176       0.51888397        8 
O       1.26859996      -2.26147699      -1.55574205        8 
C       2.67131088      -2.01516163       0.66853635        6 
C       2.63414523       1.96546958       1.07133699        6 
C      -1.48397873       1.23773921       0.03756988        6 
C      -2.81906928       0.83789364      -0.67153136        6 
C      -2.93010401      -0.66837961      -0.33026257        6 
C      -1.55337059      -0.92324632       0.32640566        6 
O      -1.38152154       0.27396250       1.10153082        8 
H      -0.45391030       1.13356173      -1.92324659        1 
H      -0.90495188      -1.13451458      -1.76932473        1 
H       3.37226447      -1.62302633      -0.07340658        1 
H       3.07506957       2.70570649       0.39818657        1 
H      -3.65256189       1.41043358      -0.25477928        1 
H      -2.78782220       1.03633535      -1.74763234        1 
H      -3.71442258      -0.84772533       0.41136020        1 
H      -3.12562080      -1.30941822      -1.19539165        1 
H       3.00003935      -1.77473001       1.68025999        1 
H       2.57997081      -3.09694666       0.53816937        1 
H       3.23006063       1.04969881       1.03054910        1 
H       2.58455535       2.34801341       2.09103007        1 
C      -1.47017910      -2.15351770       1.20442825        6 
H      -2.29460830      -2.15228473       1.92444632        1 
H      -1.54489621      -3.06062355       0.59413178        1 
H      -0.52574586      -2.17369583       1.75011972        1 
C      -1.49690169       2.65775045       0.56865494        6 
H      -2.36306174       2.78665622       1.22562460        1 
H      -0.59246764       2.88887128       1.12860823        1 
H      -1.59175868       3.36570398      -0.26289544        1 
