35
Lattice="0.0 0.0 0.0 0.0 0.0 0.0 0.0 0.0 0.0" Properties=species:S:1:pos:R:3:Z:I:1 pbc="F F F"
C      -0.67195338       0.45248869      -0.95057832        6 
C       0.27018597      -0.75346549      -0.60681292        6 
C      -0.14773449       1.81211994      -0.50517934        6 
C       1.68625910      -0.42857189      -0.16993541        6 
O      -0.21178979       2.00264101       0.82028070        8 
O       0.31714842       2.61944595      -1.28454515        8 
O       2.56648133      -1.17161295      -0.88352672        8 
O       2.03295406       0.33802505       0.70306450        8 
C       3.94819365      -0.98115226      -0.53372068        6 
C       0.46982722       3.16911533       1.30492397        6 
C      -1.97984127      -0.01824839      -0.23053177        6 
C      -2.48966217      -1.30656342      -0.95168617        6 
C      -1.58695129      -2.40376414      -0.32686014        6 
C      -0.58857260      -1.53462062       0.47223963        6 
O      -1.45741848      -0.53132410       1.00536551        8 
H      -0.80550423       0.53698844      -2.03083549        1 
H       0.37183870      -1.37923756      -1.49531678        1 
H       4.11390276      -1.22050284       0.52049273        1 
H       0.08592253       4.07395970       0.82582793        1 
H      -3.54645008      -1.47250278      -0.72356428        1 
H      -2.39349673      -1.23431192      -2.03986369        1 
H      -2.15131837      -3.02855860       0.37244001        1 
H      -1.10676022      -3.05910608      -1.05988003        1 
H       4.50938180      -1.65945155      -1.17723320        1 
H       4.24716281       0.05568964      -0.71148710        1 
H       1.53988905       3.07300077       1.10397457        1 
H       0.28306977       3.18881592       2.37894885        1 
C       0.17975965      -2.22256438       1.57801752        6 
H      -0.51466500      -2.72482182       2.25827209        1 
H       0.86126609      -2.97002740       1.15770091        1 
H       0.76148047      -1.49074835       2.14415354        1 
C      -3.04357621       1.03107710       0.01511267        6 
H      -3.87705477       0.58924360       0.57036899        1 
H      -2.64471591       1.86609457       0.59426138        1 
H      -3.42665164       1.41009850      -0.93883053        1 
