35
Lattice="0.0 0.0 0.0 0.0 0.0 0.0 0.0 0.0 0.0" Properties=species:S:1:pos:R:3:Z:I:1 pbc="F F F"
C      -0.43233150       0.54990587      -0.90382456        6 
C      -0.18568019      -0.98073160      -0.60364590        6 
C       0.74874546       1.46571077      -0.64706865        6 
C       1.13020184      -1.23794362       0.12025113        6 
O       1.11377743       1.47865643       0.65259487        8 
O       1.29573827       2.12997594      -1.50079580        8 
O       2.13727963      -1.22379424      -0.79024599        8 
O       1.31143580      -1.44314008       1.29742536        8 
C       3.45563926      -1.37809665      -0.24086670        6 
C       2.25505453       2.29248705       0.96545135        6 
C      -1.72506479       0.82695521      -0.04586947        6 
C      -2.91951138       0.27885926      -0.86431851        6 
C      -2.67946189      -1.24850815      -0.75976282        6 
C      -1.46765784      -1.32076879       0.22020041        6 
O      -1.62801512      -0.13220485       1.01402236        8 
H      -0.64619712       0.68682911      -1.96531749        1 
H      -0.14158355      -1.53728202      -1.54316636        1 
H       3.56103323      -2.35649882       0.23687557        1 
H       2.05638286       3.34091506       0.72567637        1 
H      -3.85204725       0.56665241      -0.36976660        1 
H      -2.94837833       0.65800386      -1.89030917        1 
H      -3.54129196      -1.76337446      -0.32558893        1 
H      -2.46253083      -1.72216242      -1.72278154        1 
H       4.13885163      -1.28486364      -1.08547127        1 
H       3.65069244      -0.60087595       0.50356262        1 
H       3.12728032       1.96013804       0.39496014        1 
H       2.42016780       2.16209254       2.03495873        1 
C      -1.45356910      -2.56038627       1.09188280        6 
H      -2.42075937      -2.65834816       1.59514740        1 
H      -1.29731457      -3.45295647       0.47492335        1 
H      -0.66414774      -2.50393699       1.84015713        1 
C      -1.90463832       2.22611459       0.50393264        6 
H      -2.83225158       2.27707424       1.08238733        1 
H      -1.07218916       2.49596963       1.15670038        1 
H      -1.96581645       2.95229046      -0.31421109        1 
