35
Lattice="0.0 0.0 0.0 0.0 0.0 0.0 0.0 0.0 0.0" Properties=species:S:1:pos:R:3:Z:I:1 pbc="F F F"
C       0.28720304       0.95095932       0.59121482        6 
C       0.08613845      -0.58237040       0.77878922        6 
C      -0.96466253       1.73875183       0.24108528        6 
C      -1.00118703      -1.13515626      -0.13254436        6 
O      -1.96917449       1.36499349       1.07325933        8 
O      -1.06654723       2.63699192      -0.56172771        8 
O      -1.14888169      -2.46644685       0.04518040        8 
O      -1.62101742      -0.51383840      -0.96856920        8 
C      -2.10305223      -3.09791062      -0.82646350        6 
C      -3.24552498       1.95207938       0.77873346        6 
C       1.55546073       1.02122834      -0.33955724        6 
C       2.76673669       0.96076284       0.61842142        6 
C       2.58491132      -0.45552071       1.22479555        6 
C       1.49962577      -1.07419084       0.28309566        6 
O       1.61901673      -0.29997696      -0.91876654        8 
H       0.55807582       1.36028172       1.57278050        1 
H      -0.12200715      -0.87644020       1.81026228        1 
H      -1.78398019      -3.00794876      -1.86879570        1 
H      -3.57234034       1.64451700      -0.21897622        1 
H       3.68909672       1.02250856       0.03296169        1 
H       2.77639332       1.76447721       1.36193738        1 
H       3.50782491      -1.04069648       1.18003020        1 
H       2.25658038      -0.43840390       2.26926724        1 
H      -2.13076012      -4.14442804      -0.52110995        1 
H      -3.08800874      -2.63599832      -0.71785346        1 
H      -3.19317398       3.04350734       0.82016304        1 
H      -3.92802804       1.57073368       1.53979203        1 
C       1.71627585      -2.54375355      -0.01807972        6 
H       2.75458506      -2.69181103      -0.33180120        1 
H       1.52728679      -3.15358324       0.87073085        1 
H       1.06089534      -2.89120597      -0.81733563        1 
C       1.61687531       2.06240679      -1.43407425        6 
H       2.56068860       1.94803812      -1.97789703        1 
H       0.78185902       1.94277972      -2.12475321        1 
H       1.56180189       3.07035373      -1.01561355        1 
