35
Lattice="0.0 0.0 0.0 0.0 0.0 0.0 0.0 0.0 0.0" Properties=species:S:1:pos:R:3:Z:I:1 pbc="F F F"
C      -0.44224560       0.65723677      -0.93688169        6 
C      -0.22712487      -0.86937333      -0.70548407        6 
C       0.61466616       1.64504246      -0.46482758        6 
C       1.14640222      -1.50784265      -0.59641689        6 
O       0.94978681       1.50408547       0.82884071        8 
O       1.08121612       2.50283630      -1.18720354        8 
O       2.12036533      -0.72571243      -0.09992288        8 
O       1.32804535      -2.66851906      -0.90809998        8 
C       3.41199192      -1.35024281       0.00400904        6 
C       1.98752032       2.38119275       1.28472512        6 
C      -1.76631735       0.84382486      -0.10538749        6 
C      -2.89273623      -0.02130590      -0.75574550        6 
C      -2.60032543      -1.42842947      -0.16330622        6 
C      -1.22529714      -1.17473881       0.49321015        6 
O      -1.44649336       0.11049294       1.08555504        8 
H      -0.59098225       0.88027522      -1.99495227        1 
H      -0.62722956      -1.38185736      -1.58412213        1 
H       3.75936055      -1.67821883      -0.97956789        1 
H       1.69149900       3.42821312       1.17218903        1 
H      -3.87747440       0.34967270      -0.45719398        1 
H      -2.84704055       0.00271939      -1.84927619        1 
H      -3.32387788      -1.68562072       0.61644325        1 
H      -2.59035384      -2.23200906      -0.90583698        1 
H       4.07236088      -0.58425076       0.41129657        1 
H       3.36410464      -2.21652074       0.66927310        1 
H       2.90531508       2.21136306       0.71341095        1 
H       2.13736558       2.13412871       2.33630014        1 
C      -0.75797175      -2.16721215       1.53214596        6 
H      -1.52184171      -2.28097255       2.30729633        1 
H      -0.56250821      -3.14095067       1.07412447        1 
H       0.16403105      -1.81012378       2.00184828        1 
C      -2.15949985       2.26773558       0.22720538        6 
H      -3.06877372       2.26857838       0.83621200        1 
H      -1.36872120       2.76879178       0.79150093        1 
H      -2.35114717       2.83492391      -0.68955554        1 
