35
Lattice="0.0 0.0 0.0 0.0 0.0 0.0 0.0 0.0 0.0" Properties=species:S:1:pos:R:3:Z:I:1 pbc="F F F"
C       0.42978457       0.80789923       0.66658146        6 
C       0.15911590      -0.74665533       0.62572592        6 
C      -0.66672068       1.68139192       0.06505412        6 
C      -1.12751794      -1.13503430      -0.07530730        6 
O      -1.87669610       1.28602114       0.52793466        8 
O      -0.52851196       2.63129164      -0.67063608        8 
O      -2.03380458      -1.60772605       0.80919822        8 
O      -1.34653829      -1.03156930      -1.26365742        8 
C      -3.31108406      -1.94051313       0.24592581        6 
C      -3.00648622       1.98122464      -0.02467662        6 
C       1.84814377       0.88336194       0.00247763        6 
C       2.85836090       0.30449886       1.03903499        6 
C       2.60271172      -1.21938061       0.92292889        6 
C       1.44827445      -1.25894557      -0.11073317        6 
O       1.77527719      -0.16562912      -0.97719239        8 
H       0.48223957       1.12822258       1.71401506        1 
H       0.10612909      -1.14466058       1.64068731        1 
H      -3.20577956      -2.69564621      -0.53816446        1 
H      -3.07142101       1.79052347      -1.09958866        1 
H       3.87792197       0.56282071       0.73966761        1 
H       2.69865347       0.69979500       2.04731559        1 
H       3.47434206      -1.73893075       0.51341227        1 
H       2.34104096      -1.69980118       1.87080568        1 
H      -3.90750570      -2.32491988       1.07425252        1 
H      -3.77861039      -1.04996860      -0.18479551        1 
H      -2.92091901       3.05734231       0.14656460        1 
H      -3.87776234       1.57584044       0.49127587        1 
C       1.33290028      -2.54950870      -0.89566402        6 
H       2.29766836      -2.78296613      -1.35645697        1 
H       1.05833713      -3.37710348      -0.23121631        1 
H       0.58054935      -2.45922384      -1.68078550        1 
C       2.30018907       2.17608084      -0.64679989        6 
H       3.32752136       2.05228840      -1.00511214        1 
H       1.65524253       2.44240765      -1.48208362        1 
H       2.27859058       2.99876095       0.07515652        1 
