35
Lattice="0.0 0.0 0.0 0.0 0.0 0.0 0.0 0.0 0.0" Properties=species:S:1:pos:R:3:Z:I:1 pbc="F F F"
C      -0.36040451       0.61752051      -0.89296550        6 
C      -0.20081898      -0.91500908      -0.63879914        6 
C       0.71070633       1.51794835      -0.30408957        6 
C       1.19325906      -1.42175232      -0.30591792        6 
O       1.04835604       1.16483161       0.95504464        8 
O       1.16561479       2.48715877      -0.87237682        8 
O       2.13903976      -0.65772049      -0.89850174        8 
O       1.45480156      -2.42366267       0.32222018        8 
C       3.49661475      -1.07160818      -0.67599192        6 
C       2.07383642       1.96695358       1.55784702        6 
C      -1.73667852       0.87066268      -0.18409691        6 
C      -2.84077779       0.12835817      -0.99331665        6 
C      -2.66048696      -1.33425356      -0.50471186        6 
C      -1.38157450      -1.21176570       0.36415040        6 
O      -1.60394926       0.06395908       0.99214047        8 
H      -0.39973101       0.86309419      -1.95527784        1 
H      -0.41574406      -1.43418147      -1.58229509        1 
H       3.65894262      -2.08255469      -1.06010204        1 
H       1.76902368       3.01615652       1.60191893        1 
H      -3.82735000       0.52167381      -0.73112818        1 
H      -2.71214828       0.24704926      -2.07378132        1 
H      -3.49465876      -1.64191989       0.13295756        1 
H      -2.56703493      -2.06554234      -1.31389270        1 
H       4.11193115      -0.34961702      -1.21342503        1 
H       3.72630549      -1.05735244       0.39327152        1 
H       3.00114415       1.89324349       0.98112444        1 
H       2.21085224       1.56209884       2.56096810        1 
C      -1.20578464      -2.27878928       1.42147284        6 
H      -2.11627814      -2.32878800       2.02791461        1 
H      -1.02362686      -3.25440767       0.96472935        1 
H      -0.35808493      -2.04956032       2.06897536        1 
C      -2.04955740       2.30677229       0.17993883        6 
H      -3.02276083       2.36055414       0.67730806        1 
H      -1.29371215       2.70924769       0.85992535        1 
H      -2.07590649       2.93190880      -0.71820587        1 
