35
Lattice="0.0 0.0 0.0 0.0 0.0 0.0 0.0 0.0 0.0" Properties=species:S:1:pos:R:3:Z:I:1 pbc="F F F"
C      -0.11060855       0.78739047       0.80828667        6 
C       0.69087205      -0.56988000       0.76918314        6 
C      -1.54587139       0.63930678       0.29616221        6 
C      -0.16249455      -1.82818796       0.69535779        6 
O      -1.99315120       1.69139233      -0.41118140        8 
O      -2.25571411      -0.30863538       0.56062284        8 
O      -0.43929792      -2.21272458      -0.56838787        8 
O      -0.48415704      -2.46209447       1.67550020        8 
C      -1.34052513      -3.32672574      -0.67287013        6 
C      -3.36195933       1.59979526      -0.84684646        6 
C       0.87681375       1.69560734      -0.00079769        6 
C       2.19662312       1.78161519       0.84016248        6 
C       2.91899402       0.47308725       0.44298634        6 
C       1.79153448      -0.26441017      -0.31724314        6 
O       1.22528491       0.81376643      -1.08368204        8 
H      -0.21950016       1.13270897       1.84273509        1 
H       1.18235907      -0.68330607       1.73825557        1 
H      -2.30390487      -3.06337617      -0.22776353        1 
H      -4.03191204       1.50536517       0.01193320        1 
H       2.77453974       2.66635021       0.55994515        1 
H       1.99176115       1.85002332       1.91354177        1 
H       3.74212493       0.67216572      -0.24974222        1 
H       3.31222823      -0.09604520       1.29076314        1 
H      -1.44668476      -3.51916699      -1.74135140        1 
H      -0.93388452      -4.20265618      -0.15999336        1 
H      -3.49622097       0.73219693      -1.49835063        1 
H      -3.55549339       2.52514196      -1.39013916        1 
C       2.26313436      -1.37873194      -1.22793263        6 
H       3.08764577      -1.01461795      -1.84936827        1 
H       2.62352896      -2.22736360      -0.63621558        1 
H       1.45546676      -1.72508057      -1.87199249        1 
C       0.42948117       3.04014562      -0.54585176        6 
H       1.29684918       3.56422696      -0.95977662        1 
H      -0.31478371       2.91771619      -1.32981320        1 
H      -0.00287899       3.65621431       0.24924693        1 
