35
Lattice="0.0 0.0 0.0 0.0 0.0 0.0 0.0 0.0 0.0" Properties=species:S:1:pos:R:3:Z:I:1 pbc="F F F"
C      -0.43990570       0.54888169      -0.84293731        6 
C      -0.02912413      -0.95612633      -0.58299584        6 
C       0.69904453       1.49771932      -0.47241827        6 
C       1.32711138      -1.07878805       0.08466763        6 
O       0.40094791       2.43563460       0.43619932        8 
O       1.78607797       1.41670325      -1.00952804        8 
O       2.23742487      -1.59498112      -0.76267979        8 
O       1.58170338      -0.73163707       1.21959434        8 
C       3.58853879      -1.59548431      -0.27203976        6 
C       1.49992949       3.28642164       0.81308078        6 
C      -1.82955229       0.60240528      -0.12178534        6 
C      -2.81756522      -0.22695149      -1.00366100        6 
C      -2.42254169      -1.68208384      -0.64838852        6 
C      -1.22468349      -1.44852247       0.30678657        6 
O      -1.62122589      -0.26057523       1.00650122        8 
H      -0.55949562       0.70133889      -1.92020116        1 
H       0.01203778      -1.50834160      -1.52299209        1 
H       3.66690113      -2.18364454       0.64660400        1 
H       1.87526704       3.83467214      -0.05516786        1 
H      -3.84711147      -0.00936400      -0.70605206        1 
H      -2.72558376       0.00473974      -2.06958267        1 
H      -3.22445095      -2.18956712      -0.10404038        1 
H      -2.15977634      -2.29683331      -1.51476391        1 
H       4.18892566      -2.03837026      -1.06736148        1 
H       3.90676316      -0.56872860      -0.07247736        1 
H       2.30798027       2.68344788       1.23485418        1 
H       1.09475616       3.97018594       1.55922101        1 
C      -0.94574271      -2.57465470       1.28021554        6 
H      -1.85668498      -2.80890802       1.84006859        1 
H      -0.63116337      -3.47514288       0.74036057        1 
H      -0.16266007      -2.29159440       1.98587029        1 
C      -2.39714557       1.93606984       0.32436519        6 
H      -3.40678938       1.78339320       0.71902242        1 
H      -1.77873506       2.38675428       1.09784768        1 
H      -2.45888104       2.62943990      -0.52159993        1 
