35
Lattice="0.0 0.0 0.0 0.0 0.0 0.0 0.0 0.0 0.0" Properties=species:S:1:pos:R:3:Z:I:1 pbc="F F F"
C       0.12274437       0.91044132       0.57978420        6 
C       0.42249699      -0.61679178       0.81298006        6 
C      -1.26609511       1.23584678       0.04849686        6 
C      -0.53112401      -1.68431962       0.30027505        6 
O      -2.15259065       1.14284901       1.07286035        8 
O      -1.58328469       1.58485810      -1.06478675        8 
O      -1.49786672      -1.23378333      -0.51482770        8 
O      -0.41922172      -2.85128331       0.61614469        8 
C      -2.38902205      -2.22766625      -1.04626574        6 
C      -3.52467768       1.33963965       0.70299653        6 
C       1.34092976       1.34557090      -0.30806006        6 
C       2.55951824       1.47658835       0.64741822        6 
C       2.87072127      -0.00709140       0.96721876        6 
C       1.82328172      -0.74494796       0.08691224        6 
O       1.65460219       0.13985099      -1.02637296        8 
H       0.17220440       1.41355409       1.55003887        1 
H       0.53102714      -0.84187871       1.87617107        1 
H      -2.91963060      -2.73748527      -0.23720261        1 
H      -3.82871553       0.59301339      -0.03712519        1 
H       3.38894054       1.94654439       0.11112240        1 
H       2.34208678       2.08439690       1.53126516        1 
H       3.88057286      -0.28317226       0.64986408        1 
H       2.77473064      -0.26078137       2.02746195        1 
H      -3.08238856      -1.67976657      -1.68476092        1 
H      -1.83080836      -2.96672778      -1.62706014        1 
H      -3.67410343       2.33653672       0.27855248        1 
H      -4.09897046       1.22316448       1.62307358        1 
C       2.24994154      -2.11686151      -0.39185553        6 
H       3.23373533      -2.03988935      -0.86523877        1 
H       2.30612815      -2.81874091       0.44416389        1 
H       1.54492418      -2.52041436      -1.12209115        1 
C       1.16998697       2.50602197      -1.26720339        6 
H       2.12140568       2.69703717      -1.77407232        1 
H       0.39992682       2.28800030      -2.00500321        1 
H       0.87998438       3.41125631      -0.72241654        1 
