35
Lattice="0.0 0.0 0.0 0.0 0.0 0.0 0.0 0.0 0.0" Properties=species:S:1:pos:R:3:Z:I:1 pbc="F F F"
C      -0.10615449       0.78950942      -0.83127246        6 
C      -0.53777443      -0.72740230      -0.75909562        6 
C       1.32431711       0.99781864      -0.32267073        6 
C       0.61524254      -1.71859268      -0.70946613        6 
O       1.47962100       2.01533656       0.53993096        8 
O       2.26087009       0.33333764      -0.71607179        8 
O       1.02443550      -2.00254471       0.54553586        8 
O       1.06453446      -2.25430948      -1.69757916        8 
C       2.19555881      -2.83261217       0.61997013        6 
C       2.82939494       2.23510495       0.98811718        6 
C      -1.28547978       1.42986136      -0.03112182        6 
C      -2.59896827       1.14203833      -0.83808171        6 
C      -2.95072118      -0.29412388      -0.38398351        6 
C      -1.65262579      -0.68935011       0.35675860        6 
O      -1.37239928       0.52151978       1.08223397        8 
H      -0.08472602       1.12322404      -1.87441100        1 
H      -1.00790971      -0.97454035      -1.71368142        1 
H       3.03016669      -2.33480615       0.11909300        1 
H       3.48575280       2.44488001       0.13936635        1 
H      -3.37879344       1.85892158      -0.56661981        1 
H      -2.44077081       1.22379808      -1.91853534        1 
H      -3.78015186      -0.28924959       0.33002543        1 
H      -3.20855734      -0.97208168      -1.20367540        1 
H       2.39914224      -2.95783996       1.68424706        1 
H       2.01430721      -3.80003110       0.14364384        1 
H       3.20162351       1.35258637       1.51523711        1 
H       2.77587834       3.09267376       1.65922999        1 
C      -1.78832894      -1.85973229       1.30724350        6 
H      -2.64101958      -1.68700206       1.97165854        1 
H      -1.96489161      -2.78617313       0.75005941        1 
H      -0.88664928      -1.98221790       1.90642165        1 
C      -1.20363129       2.86609725       0.45305824        6 
H      -2.16273605       3.14464108       0.90129160        1 
H      -0.41845829       2.99480109       1.19396084        1 
H      -1.00689158       3.54275163      -0.38600802        1 
