35
Lattice="0.0 0.0 0.0 0.0 0.0 0.0 0.0 0.0 0.0" Properties=species:S:1:pos:R:3:Z:I:1 pbc="F F F"
C       0.45427502       0.83875861       0.69339167        6 
C       0.06442930      -0.67985123       0.65313116        6 
C      -0.50594560       1.72095695      -0.09783102        6 
C      -1.29651975      -1.00916783       0.08126432        6 
O      -1.53671138       2.07695211       0.71018649        8 
O      -0.39155462       2.10474860      -1.23674253        8 
O      -1.87843834      -1.99919983       0.79987116        8 
O      -1.81157544      -0.51791649      -0.90012937        8 
C      -3.15032958      -2.44532532       0.29910564        6 
C      -2.60862755       2.76620334       0.04433483        6 
C       1.89101132       0.77281756       0.08563053        6 
C       2.79997646      -0.00167695       1.09324521        6 
C       2.43002568      -1.47845465       0.79604494        6 
C       1.25595538      -1.29011867      -0.19288187        6 
O       1.70437839      -0.18225634      -0.97424905        8 
H       0.45319153       1.19878342       1.72516270        1 
H       0.08530910      -1.09825277       1.66104850        1 
H      -3.04943493      -2.82271307      -0.72251359        1 
H      -3.03060942       2.12538663      -0.73509655        1 
H       3.85351642       0.20093667       0.88130790        1 
H       2.60933388       0.29236876       2.13088726        1 
H       3.24728496      -1.99712934       0.28543249        1 
H       2.15828735      -2.05943669       1.68253289        1 
H      -3.46960493      -3.23988352       0.97430332        1 
H      -3.87206289      -1.62356340       0.30072301        1 
H      -2.25072431       3.69468310      -0.40908284        1 
H      -3.34922599       2.97594336       0.81748905        1 
C       0.92103332      -2.47137863      -1.07706347        6 
H       1.81455485      -2.79341938      -1.62029608        1 
H       0.55559039      -3.30954363      -0.47390998        1 
H       0.15227329      -2.19681200      -1.80520862        1 
C       2.49925312       2.05681621      -0.44028472        6 
H       3.50044155       1.85118993      -0.83231717        1 
H       1.88466756       2.47911246      -1.23436061        1 
H       2.59270482       2.78912770       0.37017144        1 
