35
Lattice="0.0 0.0 0.0 0.0 0.0 0.0 0.0 0.0 0.0" Properties=species:S:1:pos:R:3:Z:I:1 pbc="F F F"
C       0.12948633       0.88352999       0.59776017        6 
C       0.35779950      -0.62778024       0.87540767        6 
C      -1.30416736       1.32293350       0.36891870        6 
C      -0.52410253      -1.59177184       0.09484899        6 
O      -2.13404364       0.62222431       1.17999013        8 
O      -1.68343492       2.21948629      -0.35034522        8 
O      -1.24104249      -1.00062943      -0.88148783        8 
O      -0.57069718      -2.78230351       0.32391551        8 
C      -2.04639247      -1.88037156      -1.68100830        6 
C      -3.52831755       0.93301730       1.04077220        6 
C       1.24869932       1.20879556      -0.46518686        6 
C       2.50134029       1.56246526       0.36716729        6 
C       2.76174583       0.20852157       1.08178723        6 
C       1.81821850      -0.76032597       0.30011498        6 
O       1.63260993      -0.09288141      -0.96052784        8 
H       0.38260252       1.41486033       1.52537382        1 
H       0.28573268      -0.89974515       1.93008845        1 
H      -2.80988130      -2.36448093      -1.06489335        1 
H      -3.86649331       0.70105763       0.02626552        1 
H       3.32324413       1.81495756      -0.30975276        1 
H       2.34684142       2.40384426       1.05023853        1 
H       3.80245654      -0.11220605       0.98319102        1 
H       2.52491559       0.23109412       2.15090858        1 
H      -2.50592467      -1.24534041      -2.43883137        1 
H      -1.42453229      -2.65041255      -2.14506840        1 
H      -3.71419253       1.99174928       1.24191605        1 
H      -4.04381862       0.30533142       1.76860594        1 
C       2.38232271      -2.15127821       0.09777060        6 
H       3.37260408      -2.07193999      -0.36179976        1 
H       2.48093192      -2.66318208       1.06025169        1 
H       1.74400263      -2.76080608      -0.54343720        1 
C       0.91985109       2.11859871      -1.62568984        6 
H       1.79792855       2.19828156      -2.27529478        1 
H       0.08261723       1.71622867      -2.19841540        1 
H       0.63749149       3.11310591      -1.27360324        1 
