35
Lattice="0.0 0.0 0.0 0.0 0.0 0.0 0.0 0.0 0.0" Properties=species:S:1:pos:R:3:Z:I:1 pbc="F F F"
C       0.39203567       0.78436768       0.65972659        6 
C       0.17206509      -0.78043767       0.60470475        6 
C      -0.68922650       1.68620813       0.06782928        6 
C      -1.12091829      -1.23811668      -0.04469579        6 
O      -1.92604951       1.19710565       0.29930633        8 
O      -0.50600526       2.75963028      -0.46202130        8 
O      -2.03760960      -1.55675592       0.89775030        8 
O      -1.33971397      -1.30617259      -1.23481697        8 
C      -3.32613303      -1.92208566       0.38539248        6 
C      -3.01040240       1.99421299      -0.20573449        6 
C       1.81869730       0.89938261       0.00541666        6 
C       2.83350515       0.33161388       1.04362364        6 
C       2.62475044      -1.19568056       0.89662199        6 
C       1.47145358      -1.25131179      -0.13835663        6 
O       1.77251484      -0.13682216      -0.98838772        8 
H       0.43524209       1.09773433       1.70996067        1 
H       0.15485278      -1.17018086       1.62492263        1 
H      -3.25641926      -2.81672298      -0.24053212        1 
H      -2.94280547       2.07829209      -1.29353674        1 
H       3.84903127       0.62644055       0.76479835        1 
H       2.64845578       0.70380345       2.05646993        1 
H       3.51132838      -1.67932014       0.47572778        1 
H       2.37901622      -1.70319705       1.83460078        1 
H      -3.94886731      -2.11344440       1.26027123        1 
H      -3.74148564      -1.10708098      -0.21450046        1 
H      -2.98876710       2.99504168       0.23363017        1 
H      -3.91862751       1.46470118       0.08375415        1 
C       1.40321156      -2.53581982      -0.93930810        6 
H       2.38230512      -2.73541427      -1.38587862        1 
H       1.14445318      -3.37803889      -0.28691875        1 
H       0.65902322      -2.46188855      -1.73256815        1 
C       2.25662554       2.20258101      -0.63321558        6 
H       3.28664193       2.08796122      -0.98725833        1 
H       1.61698371       2.46609605      -1.47405470        1 
H       2.22054837       3.02317139       0.08898142        1 
