35
Lattice="0.0 0.0 0.0 0.0 0.0 0.0 0.0 0.0 0.0" Properties=species:S:1:pos:R:3:Z:I:1 pbc="F F F"
C       0.27693987       0.76714101       0.63461679        6 
C       0.27979681      -0.81357966       0.64612973        6 
C      -0.99930468       1.33600843       0.04915649        6 
C      -0.82540990      -1.38988783      -0.22770041        6 
O      -1.86168574       1.66320911       1.04081444        8 
O      -1.27072308       1.44515424      -1.12679214        8 
O      -1.94712848      -1.56205078       0.51927023        8 
O      -0.76787167      -1.66528316      -1.40231986        8 
C      -3.09856280      -2.01139203      -0.21540545        6 
C      -3.15804227       2.09725531       0.59932780        6 
C       1.61457856       1.07510878      -0.13154490        6 
C       2.74619281       0.93446699       0.91692146        6 
C       2.73134554      -0.59526140       1.17107610        6 
C       1.71339221      -1.09048000       0.09694010        6 
O       1.82308626      -0.09652965      -0.93239901        8 
H       0.33577199       1.12852246       1.66334141        1 
H       0.13466837      -1.18933415       1.66129029        1 
H      -2.92665124      -3.00973897      -0.62825413        1 
H      -3.64196512       1.31088307       0.01249895        1 
H       3.69032328       1.25046755       0.46315532        1 
H       2.58351231       1.53657672       1.81652673        1 
H       3.71224499      -1.04422119       0.99114091        1 
H       2.42528268      -0.86418134       2.18744622        1 
H      -3.91738831      -2.03042408       0.50498688        1 
H      -3.31793384      -1.32392869      -1.03748753        1 
H      -3.07644695       2.99648373      -0.01785035        1 
H      -3.72464874       2.30307101       1.50802659        1 
C       2.00090232      -2.47557158      -0.44672672        6 
H       3.03510198      -2.51859337      -0.80253891        1 
H       1.87880623      -3.22462095       0.34445185        1 
H       1.33307415      -2.71734864      -1.27365423        1 
C       1.66111883       2.32162251      -0.98832339        6 
H       2.64702344       2.40480311      -1.45620580        1 
H       0.89806226       2.28018234      -1.76690109        1 
H       1.49305009       3.21366361      -0.37404379        1 
