35
Lattice="0.0 0.0 0.0 0.0 0.0 0.0 0.0 0.0 0.0" Properties=species:S:1:pos:R:3:Z:I:1 pbc="F F F"
C       0.25961070       0.75347734       0.59272329        6 
C       0.27837079      -0.82470220       0.65313318        6 
C      -1.05975569       1.39181728       0.20758054        6 
C      -0.75523432      -1.50045445      -0.25479102        6 
O      -1.90033349       1.36497495       1.26689297        8 
O      -1.37342134       1.83286098      -0.87707138        8 
O      -2.01034343      -1.12724907       0.08750896        8 
O      -0.54118316      -2.27475320      -1.15964654        8 
C      -3.05374825      -1.65821169      -0.74783292        6 
C      -3.23522339       1.80958244       0.99267208        6 
C       1.55027579       1.05441659      -0.26147921        6 
C       2.70694069       1.08646044       0.76342341        6 
C       2.69602055      -0.38485885       1.24870208        6 
C       1.75123981      -1.07134852       0.20411051        6 
O       1.81863310      -0.19079933      -0.93128414        8 
H       0.43086360       1.10166044       1.61621300        1 
H       0.07542254      -1.16377050       1.67430439        1 
H      -3.03821607      -2.75133953      -0.73773417        1 
H      -3.68977068       1.18343809       0.21964630        1 
H       3.63930426       1.32422056       0.24219239        1 
H       2.56040682       1.82180817       1.56118125        1 
H       3.69153704      -0.83515036       1.21413735        1 
H       2.32063562      -0.49747269       2.27181053        1 
H      -3.98549576      -1.28212992      -0.32384970        1 
H      -2.92827072      -1.30802793      -1.77594980        1 
H      -3.23801780       2.84890354       0.65192195        1 
H      -3.77780182       1.71216219       1.93383847        1 
C       2.18582058      -2.47857848      -0.15991223        6 
H       3.24423953      -2.46372018      -0.43956769        1 
H       2.07061801      -3.14220458       0.70512747        1 
H       1.59895960      -2.87202233      -0.98669518        1 
C       1.51982246       2.18933864      -1.26202622        6 
H       2.49854310       2.26383602      -1.74660547        1 
H       0.75084464       2.01947300      -2.01497471        1 
H       1.30281442       3.13892712      -0.76185497        1 
