35
Lattice="0.0 0.0 0.0 0.0 0.0 0.0 0.0 0.0 0.0" Properties=species:S:1:pos:R:3:Z:I:1 pbc="F F F"
C       0.01304255       0.65182704       0.68658780        6 
C       0.48716348      -0.83978504       0.67611766        6 
C      -1.37553035       0.94111093       0.15744136        6 
C      -0.43403378      -1.77412651      -0.10306227        6 
O      -1.82229339       2.11027667       0.67760303        8 
O      -2.01774407       0.28750703      -0.63505028        8 
O      -1.37149507      -2.27252471       0.73973248        8 
O      -0.34349913      -2.09542328      -1.26416215        8 
C      -2.39165774      -3.05682152       0.10068592        6 
C      -3.10353271       2.54358591       0.18908141        6 
C       1.15443102       1.35430100      -0.16375315        6 
C       2.34083408       1.57316612       0.80335364        6 
C       2.79644681       0.10987437       1.04227848        6 
C       1.90198726      -0.68097583       0.03479170        6 
O       1.63885259       0.29394598      -0.98973607        8 
H       0.03277137       1.04809900       1.70430645        1 
H       0.54155941      -1.22196084       1.69859675        1 
H      -1.95717759      -3.93510353      -0.38568265        1 
H      -3.86940096       1.79349909       0.40493950        1 
H       3.11684972       2.15200481       0.29304111        1 
H       2.05968648       2.10998494       1.71436351        1 
H       3.85268508      -0.02730330       0.79425759        1 
H       2.65237361      -0.22610553       2.07434390        1 
H      -3.07477668      -3.35758638       0.89643921        1 
H      -2.90948705      -2.45125112      -0.64824644        1 
H      -3.06566962       2.70780285      -0.89177301        1 
H      -3.31731643       3.47571158       0.71293737        1 
C       2.56483755      -1.91433727      -0.54476990        6 
H       3.53464141      -1.63723190      -0.96988659        1 
H       2.73523827      -2.65523452       0.24502256        1 
H       1.94660537      -2.35838692      -1.32397598        1 
C       0.74732419       2.53953274      -1.01154097        6 
H       1.61510309       2.90786659      -1.56702063        1 
H      -0.02312567       2.24857078      -1.73289198        1 
H       0.35634617       3.34645326      -0.38510791        1 
