35
Lattice="0.0 0.0 0.0 0.0 0.0 0.0 0.0 0.0 0.0" Properties=species:S:1:pos:R:3:Z:I:1 pbc="F F F"
C       0.46983024       0.85944398       0.67881763        6 
C       0.11257603      -0.67196318       0.66107052        6 
C      -0.58521232       1.71128449      -0.01676545        6 
C      -1.19921787      -1.00801121      -0.01286345        6 
O      -1.72831105       1.66022384       0.71628867        8 
O      -0.47986075       2.36191524      -1.02842127        8 
O      -1.95234187      -1.81152122       0.77165864        8 
O      -1.54040002      -0.65361545      -1.12188555        8 
C      -3.20710120      -2.21603786       0.19896849        6 
C      -2.87501499       2.25907844       0.08889810        6 
C       1.88860473       0.84269254       0.02833014        6 
C       2.85735815       0.17486817       1.05243880        6 
C       2.52064029      -1.32960173       0.88725152        6 
C       1.34877329      -1.26363154      -0.12215238        6 
O       1.73878506      -0.18150331      -0.97180686        8 
H       0.50634219       1.21122627       1.71466659        1 
H       0.07255709      -1.07334651       1.67484913        1 
H      -3.04631577      -2.75519482      -0.73892957        1 
H      -3.10015100       1.73301897      -0.84334962        1 
H       3.89288657       0.38591252       0.77146554        1 
H       2.70749110       0.54590747       2.07144056        1 
H       3.35550856      -1.87697445       0.43855136        1 
H       2.25201591      -1.83176778       1.82162913        1 
H      -3.67414952      -2.86377866       0.94163621        1 
H      -3.83466551      -1.34246816      -0.00018574        1 
H      -2.69283870       3.31505771      -0.12724032        1 
H      -3.69172887       2.14759057       0.80359548        1 
C       1.10015471      -2.51854834      -0.93212708        6 
H       2.02349034      -2.82305903      -1.43398506        1 
H       0.77113856      -3.33626302      -0.28090759        1 
H       0.33418642      -2.33759003      -1.69005084        1 
C       2.41983422       2.12226832      -0.58544297        6 
H       3.43067701       1.94778540      -0.96809946        1 
H       1.77663569       2.45833128      -1.39673747        1 
H       2.47058819       2.91282306       0.17199035        1 
