35
Lattice="0.0 0.0 0.0 0.0 0.0 0.0 0.0 0.0 0.0" Properties=species:S:1:pos:R:3:Z:I:1 pbc="F F F"
C      -0.35354185       0.63220359      -0.89011656        6 
C      -0.23848965      -0.91584212      -0.66710732        6 
C       0.81803808       1.47723818      -0.41607463        6 
C       1.11270092      -1.51483206      -0.30204069        6 
O       0.99961213       1.40227427       0.92104423        8 
O       1.46694965       2.20095014      -1.13935694        8 
O       2.14191709      -0.70977867      -0.63167055        8 
O       1.26836679      -2.63074845       0.14547445        8 
C       3.45476970      -1.24238000      -0.39061724        6 
C       2.11493847       2.15307391       1.42045065        6 
C      -1.68664933       0.93190013      -0.12674274        6 
C      -2.84904377       0.28083680      -0.93338863        6 
C      -2.72588515      -1.20880265      -0.52023360        6 
C      -1.43270624      -1.18560989       0.33556089        6 
O      -1.56985898       0.07361931       1.01539048        8 
H      -0.44428409       0.86386215      -1.95304762        1 
H      -0.46632069      -1.41916028      -1.61473266        1 
H       3.59591898      -2.17566793      -0.94256381        1 
H       2.00909221       3.21404206       1.17711029        1 
H      -3.80697744       0.70727180      -0.62138752        1 
H      -2.74768419       0.44588443      -2.01068875        1 
H      -3.56516470      -1.51302321       0.11234592        1 
H      -2.67340441      -1.90198893      -1.36567751        1 
H       4.14542676      -0.47499354      -0.74062499        1 
H       3.59560339      -1.43696707       0.67623261        1 
H       3.04710847       1.78311230       0.98205553        1 
H       2.11138768       2.00148037       2.50040654        1 
C      -1.31192855      -2.30184114       1.35019634        6 
H      -2.21507702      -2.31111346       1.96922285        1 
H      -1.20274981      -3.26964135       0.85584676        1 
H      -0.44305973      -2.15443297       1.99385137        1 
C      -1.92823208       2.36739897       0.29176708        6 
H      -2.87759849       2.43931661       0.83139039        1 
H      -1.13027133       2.72209207       0.94752759        1 
H      -1.97829521       3.01651272      -0.58906019        1 
