35
Lattice="0.0 0.0 0.0 0.0 0.0 0.0 0.0 0.0 0.0" Properties=species:S:1:pos:R:3:Z:I:1 pbc="F F F"
C      -0.35649402       0.61351257      -0.88141169        6 
C      -0.18184093      -0.91556814      -0.61765658        6 
C       0.67211641       1.53462736      -0.25118750        6 
C       1.22677947      -1.36922207      -0.27054002        6 
O       1.12496103       1.07550417       0.93379160        8 
O       1.00543402       2.59783426      -0.72924796        8 
O       2.12127978      -0.70700580      -1.04476631        8 
O       1.54469610      -2.24590236       0.50049548        8 
C       3.49672885      -1.05928710      -0.83115474        6 
C       2.09287997       1.90902182       1.58869106        6 
C      -1.75184268       0.84898207      -0.19998158        6 
C      -2.82770967       0.07782547      -1.02016102        6 
C      -2.63087832      -1.37521058      -0.51119806        6 
C      -1.36580874      -1.22221184       0.37293249        6 
O      -1.61978426       0.05649737       0.98642952        8 
H      -0.37443969       0.86423839      -1.94301828        1 
H      -0.37356694      -1.43996228      -1.56312607        1 
H       3.65785692      -2.12282333      -1.02835688        1 
H       1.67070706       2.89541367       1.79962716        1 
H      -3.82560203       0.45651728      -0.78036751        1 
H      -2.68173391       0.18738490      -2.09936529        1 
H      -3.46859670      -1.68807000       0.11925138        1 
H      -2.51404287      -2.11526881      -1.30925581        1 
H       4.06752395      -0.44531983      -1.52845264        1 
H       3.78836719      -0.84354688       0.20088249        1 
H       2.97888454       2.03199002       0.95853461        1 
H       2.34528081       1.39054514       2.51388041        1 
C      -1.18676674      -2.27788839       1.44131297        6 
H      -2.10778322      -2.34637363       2.02989270        1 
H      -0.97631743      -3.25260024       0.99331333        1 
H      -0.35562442      -2.02705933       2.10097474        1 
C      -2.10188595       2.28117748       0.14549442        6 
H      -3.08906820       2.31759918       0.61613193        1 
H      -1.37290554       2.70653502       0.84038496        1 
H      -2.11477546       2.89986519      -0.75708092        1 
