35
Lattice="0.0 0.0 0.0 0.0 0.0 0.0 0.0 0.0 0.0" Properties=species:S:1:pos:R:3:Z:I:1 pbc="F F F"
C      -0.69219964       0.51641260       0.72943157        6 
C       0.76634388      -0.03344194       0.86214613        6 
C      -1.75211953      -0.57864524       0.77203835        6 
C       0.92912285      -1.35115462       0.09602175        6 
O      -2.56639910      -0.62599807      -0.29718737        8 
O      -1.89981005      -1.26493944       1.76090333        8 
O       2.21476339      -1.63248682      -0.18824764        8 
O       0.01930463      -2.06681146      -0.26679436        8 
C       2.42833779      -2.85122575      -0.92302252        6 
C      -3.52571485      -1.69562932      -0.27482063        6 
C      -0.53622934       1.60774423      -0.40019119        6 
C      -0.15309939       2.89705394       0.36019348        6 
C       1.20232226       2.46795561       0.97788805        6 
C       1.52753438       1.15903684       0.17641240        6 
O       0.73085909       1.28842918      -1.01562993        8 
H      -0.91038676       1.03923670       1.66646641        1 
H       1.06156164      -0.19418555       1.90338412        1 
H       1.91922773      -2.80571556      -1.88941215        1 
H      -4.16981054      -1.61911335       0.60535323        1 
H      -0.01782601       3.71012879      -0.35977088        1 
H      -0.89980924       3.20853071       1.09794188        1 
H       1.98056281       3.21900778       0.81947102        1 
H       1.14189970       2.28118820       2.05533526        1 
H       3.50809748      -2.92387077      -1.05704441        1 
H       2.04854667      -3.70935139      -0.36182284        1 
H      -3.00576559      -2.65731071      -0.25764799        1 
H      -4.10683568      -1.58629548      -1.19152028        1 
C       2.99749667       1.04295369      -0.18296844        6 
H       3.34541903       2.00761323      -0.56601555        1 
H       3.59166037       0.78338211       0.69925879        1 
H       3.16479380       0.28431883      -0.94460340        1 
C      -1.59699532       1.75736714      -1.46737990        6 
H      -1.32027103       2.58183124      -2.13316598        1 
H      -1.68936407       0.84036942      -2.05007771        1 
H      -2.57054355       1.97458202      -1.01952004        1 
