35
Lattice="0.0 0.0 0.0 0.0 0.0 0.0 0.0 0.0 0.0" Properties=species:S:1:pos:R:3:Z:I:1 pbc="F F F"
C       0.04733562       0.86887521       0.65423097        6 
C       0.53286251      -0.61419538       0.78197291        6 
C      -1.23823442       1.08990970      -0.13277704        6 
C      -0.39884329      -1.79065078       0.56003723        6 
O      -2.24775695       1.40074554       0.71971356        8 
O      -1.37174350       1.07435914      -1.33431883        8 
O      -1.51373235      -1.51272068      -0.13622911        8 
O      -0.13212475      -2.90296545       0.96909510        8 
C      -2.38351303      -2.62811958      -0.39248211        6 
C      -3.52273342       1.60018849       0.09131432        6 
C       1.28033450       1.48781842      -0.08671058        6 
C       2.51348723       1.40054269       0.86869955        6 
C       2.97613467      -0.06669175       0.66622940        6 
C       1.80578143      -0.62179712      -0.17457691        6 
O       1.55362993       0.47145676      -1.06308122        8 
H      -0.09687443       1.30456879       1.64542228        1 
H       0.88348242      -0.78037036       1.80343211        1 
H      -2.75268967      -3.04949368       0.54672698        1 
H      -3.82621017       0.69831814      -0.44877519        1 
H       3.28187952       2.11588678       0.56174599        1 
H       2.24495454       1.62836611       1.90551935        1 
H       3.89388721      -0.11200404       0.07189136        1 
H       3.14265668      -0.61511455       1.59832734        1 
H      -3.20327516      -2.22391650      -0.98683883        1 
H      -1.85158877      -3.40630309      -0.94611243        1 
H      -3.48039906       2.43403710      -0.61557859        1 
H      -4.22111950       1.81688627       0.90080980        1 
C       2.06723616      -1.88964067      -0.95463719        6 
H       2.96328014      -1.76501871      -1.57014781        1 
H       2.20600913      -2.73646089      -0.27788095        1 
H       1.22160183      -2.10791178      -1.61411874        1 
C       1.09378465       2.83971993      -0.74430767        6 
H       2.01813452       3.12579991      -1.25563924        1 
H       0.28408068       2.81325199      -1.47457561        1 
H       0.87100147       3.59899946       0.01413482        1 
