35
Lattice="0.0 0.0 0.0 0.0 0.0 0.0 0.0 0.0 0.0" Properties=species:S:1:pos:R:3:Z:I:1 pbc="F F F"
C      -0.82741291       0.09350140      -0.69239757        6 
C       0.66085316      -0.37457566      -0.61597868        6 
C      -1.19425665       1.31939694       0.13566799        6 
C       1.69616630       0.61113978      -0.11326619        6 
O      -1.59642456       2.32194565      -0.68942071        8 
O      -1.23448801       1.39969964       1.33951822        8 
O       2.83035395       0.48454916      -0.85146044        8 
O       1.59816959       1.38440420       0.81188385        8 
C       3.92477033       1.31488206      -0.42877129        6 
C      -2.00088531       3.52487080      -0.01492820        6 
C      -1.53196891      -1.18753157      -0.11507154        6 
C      -1.28511609      -2.36687783      -1.10906246        6 
C       0.15022476      -2.81790554      -0.72522490        6 
C       0.54900575      -1.69311723       0.25757894        6 
O      -0.66801364      -1.50837168       0.98389132        8 
H      -1.11556157       0.28785719      -1.72721705        1 
H       0.98762990      -0.65113670      -1.62033506        1 
H       4.20558214       1.08481002       0.60311335        1 
H      -1.18585678       3.90781391       0.60542504        1 
H      -2.01692884      -3.16150294      -0.93876912        1 
H      -1.37552923      -2.05141495      -2.15342578        1 
H       0.13402366      -3.77139831      -0.18836518        1 
H       0.83193330      -2.91380341      -1.57553115        1 
H       4.74514910       1.08857673      -1.11084013        1 
H       3.65139072       2.37210330      -0.49087320        1 
H      -2.86763564       3.33232536       0.62447325        1 
H      -2.25448323       4.23407530      -0.80397801        1 
C       1.69766615      -1.97845611       1.19871989        6 
H       1.51695846      -2.91258709       1.73923738        1 
H       2.63476545      -2.07009218       0.63944709        1 
H       1.79775581      -1.16757282       1.92600666        1 
C      -2.96587500      -1.03863444       0.34929484        6 
H      -3.32420046      -1.99278512       0.74840404        1 
H      -3.04442394      -0.28329975       1.13342721        1 
H      -3.60879990      -0.75316586      -0.49107891        1 
