35
Lattice="0.0 0.0 0.0 0.0 0.0 0.0 0.0 0.0 0.0" Properties=species:S:1:pos:R:3:Z:I:1 pbc="F F F"
C      -0.43804241       0.60638271      -0.81586677        6 
C      -0.11237402      -0.91553379      -0.58039634        6 
C       0.52024515       1.69408449      -0.35747038        6 
C       1.26482469      -1.21485203      -0.00248247        6 
O       1.48625376       1.27942841       0.47676679        8 
O       0.40451646       2.84684421      -0.72094636        8 
O       2.17471204      -1.16864707      -1.00883235        8 
O       1.55455824      -1.51158234       1.13325543        8 
C       3.53630795      -1.36092807      -0.60081324        6 
C       2.38230570       2.29492047       0.95641688        6 
C      -1.82301806       0.72939931      -0.05436850        6 
C      -2.89382811       0.02297762      -0.92777406        6 
C      -2.55516691      -1.46986163      -0.68781386        6 
C      -1.34091623      -1.37073380       0.28058275        6 
O      -1.64798218      -0.18512732       1.03329040        8 
H      -0.58475952       0.81371684      -1.87788607        1 
H      -0.12598052      -1.42007051      -1.55070246        1 
H       3.66726025      -2.34202930      -0.13522282        1 
H       1.82872228       3.06140665       1.50518422        1 
H      -3.89131631       0.27040188      -0.55298831        1 
H      -2.84563984       0.32621969      -1.97792435        1 
H      -3.37914917      -1.98755092      -0.18820988        1 
H      -2.31982748      -2.02129961      -1.60341113        1 
H       4.13143752      -1.28479925      -1.51180172        1 
H       3.82990797      -0.58873363       0.11675814        1 
H       2.90831679       2.76532419       0.12092270        1 
H       3.07863667       1.77575960       1.61519979        1 
C      -1.18211167      -2.56288363       1.20248799        6 
H      -2.13654073      -2.76393583       1.69950776        1 
H      -0.89833924      -3.45227392       0.62848873        1 
H      -0.41432144      -2.37362093       1.95062397        1 
C      -2.22042413       2.09454670       0.46527164        6 
H      -3.18974036       2.01811819       0.96764855        1 
H      -1.48852745       2.47366723       1.18262325        1 
H      -2.29490319       2.81451981      -0.35382444        1 
