35
Lattice="0.0 0.0 0.0 0.0 0.0 0.0 0.0 0.0 0.0" Properties=species:S:1:pos:R:3:Z:I:1 pbc="F F F"
C      -0.79327097       0.36494419      -0.90896956        6 
C       0.39659898      -0.56932486      -0.60113249        6 
C      -0.83145327       1.70163609      -0.17198585        6 
C       1.78951811       0.03453873      -0.63250544        6 
O       0.16247131       1.87127186       0.71311131        8 
O      -1.68074346       2.54238681      -0.38891090        8 
O       2.71416278      -0.91344063      -0.33391556        8 
O       2.08748295       1.13358347      -1.04126791        8 
C       4.08185644      -0.49117419      -0.45952002        6 
C       0.15102270       3.12044262       1.41919924        6 
C      -1.93412279      -0.51630010      -0.25519651        6 
C      -1.93032409      -1.95232293      -0.87749500        6 
C      -0.81248340      -2.66203638      -0.06249639        6 
C      -0.15038032      -1.43959934       0.60667654        6 
O      -1.32519280      -0.72254480       1.03617146        8 
H      -0.94466653       0.55770021      -1.97293866        1 
H       0.47970006      -1.25516603      -1.45521951        1 
H       4.28823198       0.35010166       0.20819235        1 
H      -0.75952831       3.21417830       2.01812185        1 
H      -2.90330616      -2.43054413      -0.73722540        1 
H      -1.72986941      -1.92817721      -1.95405245        1 
H      -1.23921957      -3.31055753       0.70879615        1 
H      -0.12075246      -3.25203551      -0.67270033        1 
H       4.68299739      -1.35780935      -0.18201433        1 
H       4.29561274      -0.18468888      -1.48746406        1 
H       0.20284225       3.95503275       0.71505375        1 
H       1.03334148       3.10095407       2.05949546        1 
C       0.75922143      -1.68696904       1.78626569        6 
H       0.20637816      -2.22479212       2.56308775        1 
H       1.62815302      -2.27549826       1.48615848        1 
H       1.10725731      -0.73523564       2.19912208        1 
C      -3.32000774       0.07773276      -0.11121885        6 
H      -3.96041707      -0.63775984       0.41506901        1 
H      -3.30714872       1.01625106       0.44239021        1 
H      -3.75071708       0.27162962      -1.09882108        1 
