35
Lattice="0.0 0.0 0.0 0.0 0.0 0.0 0.0 0.0 0.0" Properties=species:S:1:pos:R:3:Z:I:1 pbc="F F F"
C      -0.19616470       0.62147817      -0.79215530        6 
C      -0.18628142      -0.94069272      -0.53894982        6 
C       0.97176130       1.36202939      -0.12767185        6 
C       1.13984813      -1.61027703      -0.21342106        6 
O       0.64319744       2.02527836       0.99963159        8 
O       2.08542802       1.41067087      -0.60486678        8 
O       2.06172296      -1.24709607      -1.12104521        8 
O       1.36690298      -2.37240735       0.70257901        8 
C       3.39557916      -1.72134578      -0.88640275        6 
C       1.72398776       2.73832778       1.62277988        6 
C      -1.63237717       0.93975028      -0.28246935        6 
C      -2.64907650       0.15210140      -1.18066737        6 
C      -2.64764720      -1.24983416      -0.52185302        6 
C      -1.42914748      -1.11983899       0.42064619        6 
O      -1.64451956       0.20264912       0.95115192        8 
H      -0.07126336       0.81964843      -1.85953032        1 
H      -0.44109973      -1.39545353      -1.50461992        1 
H       3.43372895      -2.81339798      -0.93986258        1 
H       2.14059623       3.48117744       0.93682527        1 
H      -3.63559243       0.62145702      -1.13961334        1 
H      -2.33880441       0.13511453      -2.23091195        1 
H      -3.54807249      -1.40380041       0.08061974        1 
H      -2.56340128      -2.07844457      -1.23238032        1 
H       4.00395195      -1.27209831      -1.67116252        1 
H       3.74251929      -1.39837788       0.09874769        1 
H       2.51807469       2.04685173       1.91843901        1 
H       1.28758339       3.21906974       2.49877288        1 
C      -1.36644335      -2.12035065       1.55406031        6 
H      -2.31678399      -2.09218957       2.09744075        1 
H      -1.20153934      -3.13128821       1.17273203        1 
H      -0.55136978      -1.88590501       2.23898640        1 
C      -2.03615068       2.38833342      -0.08124010        6 
H      -3.06596081       2.42609833       0.28824129        1 
H      -1.38969005       2.89541536       0.63223942        1 
H      -1.99862106       2.92164342      -1.03845702        1 
