35
Lattice="0.0 0.0 0.0 0.0 0.0 0.0 0.0 0.0 0.0" Properties=species:S:1:pos:R:3:Z:I:1 pbc="F F F"
C       0.20147670       0.75126754       0.60576876        6 
C       0.36700932      -0.82130044       0.65298742        6 
C      -1.11798880       1.24883068       0.04901159        6 
C      -0.70591896      -1.62159293      -0.08488370        6 
O      -1.97512362       1.53269865       1.05536348        8 
O      -1.40816518       1.35947238      -1.12316774        8 
O      -1.94015655      -1.21194243       0.28817428        8 
O      -0.53432904      -2.52956193      -0.86584972        8 
C      -3.03260761      -1.85401804      -0.39071386        6 
C      -3.29155464       1.92051989       0.63790241        6 
C       1.48950479       1.17365543      -0.19688602        6 
C       2.64668396       1.19007134       0.83034819        6 
C       2.77963122      -0.31936783       1.15029848        6 
C       1.82014421      -0.96463810       0.09742718        6 
O       1.80495613       0.00280816      -0.96554150        8 
H       0.25947424       1.13267466       1.62747603        1 
H       0.30035154      -1.15643329       1.69475625        1 
H      -2.98334112      -2.93851870      -0.26341678        1 
H      -3.75100191       1.12554923       0.04351179        1 
H       3.54940559       1.57167990       0.34384357        1 
H       2.43951012       1.81532691       1.70454665        1 
H       3.80117455      -0.67694714       0.99467228        1 
H       2.49570921      -0.57189066       2.17721664        1 
H      -3.93664863      -1.45194697       0.06791284        1 
H      -3.00167345      -1.61421702      -1.45701607        1 
H      -3.25492583       2.83249939       0.03485863        1 
H      -3.85488960       2.08931364       1.55642240        1 
C       2.29674181      -2.31198739      -0.41072818        6 
H       3.34739032      -2.22776297      -0.70712622        1 
H       2.21918879      -3.06672385       0.37963332        1 
H       1.70446872      -2.64392420      -1.26023654        1 
C       1.40348951       2.39092767      -1.09357543        6 
H       2.37828987       2.56642305      -1.55921574        1 
H       0.65359630       2.24410274      -1.87085660        1 
H       1.13461608       3.27815451      -0.50892418        1 
