35
Lattice="0.0 0.0 0.0 0.0 0.0 0.0 0.0 0.0 0.0" Properties=species:S:1:pos:R:3:Z:I:1 pbc="F F F"
C      -0.60359546       0.50417825      -0.90907757        6 
C       0.26858868      -0.76494786      -0.60450412        6 
C      -0.17004862       1.88603562      -0.45179002        6 
C       1.70695291      -0.60006980      -0.13865660        6 
O       0.31195659       1.91723703       0.79521474        8 
O      -0.30106781       2.87162451      -1.15211623        8 
O       2.53510478      -1.21497136      -1.02635106        8 
O       2.11226116      -0.09853066       0.88508624        8 
C       3.92585298      -1.19937661      -0.66829127        6 
C       0.74099440       3.20307457       1.26566184        6 
C      -1.94047359       0.09974510      -0.17460674        6 
C      -2.56885981      -1.10216535      -0.93769341        6 
C      -1.71242895      -2.28837283      -0.41797349        6 
C      -0.64981132      -1.54313563       0.42646069        6 
O      -1.43654558      -0.50437586       1.02160393        8 
H      -0.76708933       0.60953591      -1.98296365        1 
H       0.33391744      -1.34469985      -1.52660139        1 
H       4.08166254      -1.71061385       0.28633541        1 
H      -0.11218084       3.88197001       1.35974452        1 
H      -3.62036742      -1.21450920      -0.65710874        1 
H      -2.52762209      -0.97346621      -2.02360820        1 
H      -2.29865549      -2.93780396       0.23914613        1 
H      -1.27981650      -2.90714385      -1.20958702        1 
H       4.44290455      -1.72145742      -1.47431281        1 
H       4.28887132      -0.17149611      -0.57875845        1 
H       1.46629055       3.64150355       0.57469154        1 
H       1.19649215       3.01654780       2.23800258        1 
C       0.04411885      -2.36211812       1.49274451        6 
H      -0.70122797      -2.85529149       2.12440357        1 
H       0.67253369      -3.13200868       1.03127397        1 
H       0.67139950      -1.72203056       2.11646393        1 
C      -2.89119661       1.23225634       0.15154600        6 
H      -3.78626874       0.83897437       0.64288361        1 
H      -2.41789533       1.95028250       0.82660964        1 
H      -3.18896195       1.75679422      -0.76164212        1 
