35
Lattice="0.0 0.0 0.0 0.0 0.0 0.0 0.0 0.0 0.0" Properties=species:S:1:pos:R:3:Z:I:1 pbc="F F F"
C      -0.75949944       0.51442373      -0.87596538        6 
C       0.17708160      -0.71333774      -0.71423380        6 
C      -0.31847939       1.79064711      -0.17442247        6 
C       1.65251489      -0.35128798      -0.77115745        6 
O       0.67800005       1.60638910       0.71331142        8 
O      -0.83425164       2.86907482      -0.38126738        8 
O       2.44249796      -1.15912508      -0.03782584        8 
O       2.08426693       0.50609423      -1.51219836        8 
C       3.85257919      -0.90397325      -0.16312865        6 
C       1.11239976       2.78889973       1.40143774        6 
C      -2.02251852      -0.03191086      -0.11904535        6 
C      -2.51469103      -1.33035182      -0.83595784        6 
C      -1.57324476      -2.40749570      -0.23444793        6 
C      -0.52176475      -1.51160382       0.46207885        6 
O      -1.38803634      -0.53248292       1.07118026        8 
H      -0.96667673       0.77272828      -1.91571051        1 
H       0.07360563      -1.31806499      -1.62490809        1 
H       4.08398284       0.11981960       0.14291614        1 
H       0.28369790       3.23093104       1.96126606        1 
H      -3.56435969      -1.52401866      -0.59849075        1 
H      -2.43381803      -1.24675034      -1.92485626        1 
H      -2.09039618      -3.00400261       0.52350109        1 
H      -1.14367624      -3.08916310      -0.97575583        1 
H       4.33922067      -1.62411808       0.49549327        1 
H       4.17670838      -1.04412124      -1.19820193        1 
H       1.49421972       3.52404621       0.68771240        1 
H       1.90235240       2.46056684       2.07770534        1 
C       0.31497214      -2.17539333       1.53206541        6 
H      -0.35480088      -2.61803889       2.27667699        1 
H       0.94440356      -2.95950559       1.10500432        1 
H       0.96151001      -1.44512282       2.02181687        1 
C      -3.12447557       0.94750444       0.22603528        6 
H      -3.89980087       0.42915221       0.79934907        1 
H      -2.75241232       1.78744547       0.81519028        1 
H      -3.57272706       1.34941239      -0.68815069        1 
