35
Lattice="0.0 0.0 0.0 0.0 0.0 0.0 0.0 0.0 0.0" Properties=species:S:1:pos:R:3:Z:I:1 pbc="F F F"
C      -0.77302928      -0.23722480      -0.72267106        6 
C       0.78699425      -0.23524782      -0.77592604        6 
C      -1.35287877       0.92054790       0.06479389        6 
C       1.34889685       1.16996080      -0.58876287        6 
O      -2.53522357       1.30667184      -0.46466707        8 
O      -0.88447893       1.39469408       1.07680605        8 
O       2.44601220       1.24794310       0.18070604        8 
O       0.88307602       2.12147095      -1.18155855        8 
C       2.98294848       2.57496020       0.33249586        6 
C      -3.21135819       2.35000495       0.25586480        6 
C      -1.03558473      -1.57045183       0.06102875        6 
C      -0.62052806      -2.75382651      -0.85872126        6 
C       0.92470042      -2.72884837      -0.72011623        6 
C       1.14133884      -1.45962280       0.15155462        6 
O       0.01049851      -1.53750610       1.03770340        8 
H      -1.23163930      -0.25230269      -1.71215779        1 
H       1.09421165      -0.47207131      -1.80191281        1 
H       2.23687587       3.23032777       0.78921698        1 
H      -2.57922186       3.23955008       0.32011046        1 
H      -1.04328860      -3.68911393      -0.47968896        1 
H      -0.97118622      -2.62254819      -1.88736309        1 
H       1.28256236      -3.60373102      -0.16956156        1 
H       1.45770556      -2.69139937      -1.67543843        1 
H       3.85202031       2.46429968       0.98166810        1 
H       3.27211174       2.98495062      -0.63895010        1 
H      -3.45985544       2.01809331       1.26850420        1 
H      -4.11819525       2.55973159      -0.31257460        1 
C       2.42036482      -1.45852489       0.96143631        6 
H       2.49904224      -2.40675326       1.50326915        1 
H       3.29355626      -1.34910553       0.31172660        1 
H       2.42161693      -0.63776628       1.67848443        1 
C      -2.38590978      -1.70493024       0.73442290        6 
H      -2.44936338      -2.66905415       1.24817556        1 
H      -2.52527603      -0.91271241       1.47553218        1 
H      -3.19285500      -1.64330091      -0.00262736        1 
