35
Lattice="0.0 0.0 0.0 0.0 0.0 0.0 0.0 0.0 0.0" Properties=species:S:1:pos:R:3:Z:I:1 pbc="F F F"
C      -0.70963150       0.44353730       0.69996414        6 
C       0.75376281      -0.05389931       0.87018604        6 
C      -1.71958616      -0.69537868       0.71790127        6 
C       0.98916280      -1.30297974       0.01822703        6 
O      -2.75236652      -0.53292295      -0.13018494        8 
O      -1.67062910      -1.57683144       1.54931292        8 
O       2.29510064      -1.63486820      -0.03917744        8 
O       0.14250288      -1.88741346      -0.62355213        8 
C       2.60153905      -2.76885008      -0.86986417        6 
C      -3.73805395      -1.57877170      -0.09060170        6 
C      -0.56713962       1.54814386      -0.41865714        6 
C      -0.26177465       2.84743978       0.36031688        6 
C       1.09133011       2.46913397       1.01890756        6 
C       1.49261306       1.17954220       0.22408371        6 
O       0.73287845       1.28913270      -0.99302104        8 
H      -0.98027540       0.95646667       1.63148307        1 
H       1.03909746      -0.24264109       1.90775121        1 
H       2.29031786      -2.58010461      -1.90087760        1 
H      -4.18869885      -1.64695937       0.90352475        1 
H      -0.13760568       3.67099668      -0.34966669        1 
H      -1.04434124       3.12136803       1.07543533        1 
H       1.84260298       3.25204503       0.88677841        1 
H       1.00624027       2.27430404       2.09324013        1 
H       3.68323595      -2.89223726      -0.80719572        1 
H       2.08862664      -3.66232219      -0.50315502        1 
H      -3.27743261      -2.53843557      -0.33972487        1 
H      -4.48505049      -1.30353408      -0.83627207        1 
C       2.97542779       1.10682394      -0.08576429        6 
H       3.30583809       2.07507844      -0.47524326        1 
H       3.54716931       0.87964403       0.81961528        1 
H       3.19182853       0.34072971      -0.82843459        1 
C      -1.59373735       1.64583558      -1.52357989        6 
H      -1.30014752       2.44623138      -2.21105482        1 
H      -1.65401153       0.70505725      -2.07338686        1 
H      -2.58338306       1.86748212      -1.11736740        1 
