35
Lattice="0.0 0.0 0.0 0.0 0.0 0.0 0.0 0.0 0.0" Properties=species:S:1:pos:R:3:Z:I:1 pbc="F F F"
C      -0.82554023       0.36809328      -0.88280156        6 
C       0.31010054      -0.69809329      -0.75172854        6 
C      -0.48555860       1.77259960      -0.41102954        6 
C       1.70051548      -0.10016906      -0.58309320        6 
O       0.00068348       1.78951293       0.84915596        8 
O      -0.70892771       2.77078815      -1.05955811        8 
O       2.57883471      -0.96947921      -0.04651663        8 
O       2.02510694       0.99840597      -0.98194616        8 
C       3.93378436      -0.49340947       0.04303422        6 
C       0.41965572       3.08168262       1.31297112        6 
C      -1.94589005      -0.28670061      -0.01023723        6 
C      -2.45228967      -1.55779216      -0.75004248        6 
C      -1.32019265      -2.57428187      -0.44420774        6 
C      -0.30482499      -1.68467968       0.32497072        6 
O      -1.18715198      -0.83507827       1.07570230        8 
H      -1.14828153       0.49044774      -1.91803269        1 
H       0.39753415      -1.24135837      -1.70110122        1 
H       3.98101866       0.40667562       0.66170034        1 
H      -0.41087681       3.79238106       1.28354589        1 
H      -3.40650377      -1.88120100      -0.32379548        1 
H      -2.60797981      -1.38278819      -1.81926115        1 
H      -1.67450505      -3.37022064       0.21781714        1 
H      -0.89116860      -3.04349797      -1.33522514        1 
H       4.49819861      -1.30692860       0.49975556        1 
H       4.32414171      -0.26022896      -0.95145503        1 
H       1.23371027       3.45589435       0.68541277        1 
H       0.76043049       2.92914166       2.33783503        1 
C       0.59873552      -2.42973511       1.28413480        6 
H      -0.02466170      -3.03103951       1.95391018        1 
H       1.28531305      -3.08932489       0.74777678        1 
H       1.18841964      -1.73384993       1.88263149        1 
C      -3.02896504       0.64032855       0.50024947        6 
H      -3.74384195       0.07830755       1.10925014        1 
H      -2.60019574       1.43420366       1.11724266        1 
H      -3.56510361       1.09887176      -0.33734642        1 
