35
Lattice="0.0 0.0 0.0 0.0 0.0 0.0 0.0 0.0 0.0" Properties=species:S:1:pos:R:3:Z:I:1 pbc="F F F"
C       0.44293197       0.84617068       0.67881965        6 
C       0.14712156      -0.70129840       0.64169476        6 
C      -0.62359125       1.65622783      -0.04885391        6 
C      -1.16868489      -1.06405838      -0.01195265        6 
O      -1.78810591       1.55489395       0.64402049        8 
O      -0.51481138       2.30708222      -1.06008903        8 
O      -1.97228491      -1.72549241       0.85011356        8 
O      -1.48268184      -0.81732479      -1.15791402        8 
C      -3.25450598      -2.09959483       0.31969461        6 
C      -2.93607633       2.11424257      -0.01648386        6 
C       1.87575040       0.88668222       0.06433022        6 
C       2.84095854       0.22225203       1.09513496        6 
C       2.56771072      -1.28739807       0.87186853        6 
C       1.40504393      -1.23101849      -0.14863110        6 
O       1.77545882      -0.11416598      -0.96363287        8 
H       0.43315958       1.19333716       1.71684494        1 
H       0.13106663      -1.10829418       1.65395461        1 
H      -3.13730962      -2.75421302      -0.54855694        1 
H      -3.10624508       1.59317395      -0.96307167        1 
H       3.87533432       0.48403661       0.85516454        1 
H       2.64563768       0.55354715       2.12053475        1 
H       3.42828564      -1.78313917       0.41216445        1 
H       2.31035012      -1.83289607       1.78487284        1 
H      -3.76718362      -2.61998607       1.12933847        1 
H      -3.81519735      -1.21053887       0.01655395        1 
H      -2.79084955       3.17996420      -0.21202218        1 
H      -3.77174965       1.95842405       0.66727775        1 
C       1.20881745      -2.46980467      -0.99664501        6 
H       2.14898996      -2.72875867      -1.49289808        1 
H       0.90089432      -3.31622297      -0.37191279        1 
H       0.44574027      -2.29360717      -1.75744353        1 
C       2.38133908       2.19789582      -0.50296202        6 
H       3.40363955       2.06301424      -0.87086446        1 
H       1.74441529       2.53820354      -1.31742015        1 
H       2.39609436       2.96716597       0.27773866        1 
