35
Lattice="0.0 0.0 0.0 0.0 0.0 0.0 0.0 0.0 0.0" Properties=species:S:1:pos:R:3:Z:I:1 pbc="F F F"
C      -0.83802723       0.24335594      -0.91115551        6 
C       0.44679033      -0.59367043      -0.67027963        6 
C      -0.85856055       1.66309955      -0.36388349        6 
C       1.73925760       0.19275902      -0.53315236        6 
O      -0.34915273       1.75613668       0.87841957        8 
O      -1.34627353       2.59625427      -0.96576527        8 
O       2.78055041      -0.64501099      -0.31966198        8 
O       1.88114398       1.38307313      -0.70849298        8 
C       4.07206391      -0.01562404      -0.26332586        6 
C      -0.25811159       3.09080137       1.39653586        6 
C      -1.87602162      -0.64137003      -0.13557071        6 
C      -1.96831271      -2.03030340      -0.84000372        6 
C      -0.72278457      -2.76298911      -0.26868296        6 
C      -0.01470318      -1.60034034       0.46780415        6 
O      -1.14115487      -0.93796992       1.06016353        8 
H      -1.08717641       0.32980260      -1.97012399        1 
H       0.63600974      -1.19355900      -1.56914494        1 
H       4.10734047       0.71756169       0.54731260        1 
H      -1.24251644       3.56639470       1.42381000        1 
H      -2.89780466      -2.53497623      -0.56186884        1 
H      -1.95277902      -1.93787059      -1.93072258        1 
H      -1.01439080      -3.52390869       0.46181638        1 
H      -0.09770385      -3.24078623      -1.02940502        1 
H       4.78285001      -0.82277349      -0.08313600        1 
H       4.29278439       0.49092997      -1.20713513        1 
H       0.41229657       3.68709481       0.77091868        1 
H       0.14707581       2.98665908       2.40376427        1 
C       0.97293350      -1.98125252       1.54679770        6 
H       0.46809203      -2.60992140       2.28718306        1 
H       1.82075968      -2.52780408       1.12814947        1 
H       1.35172359      -1.08729507       2.05026679        1 
C      -3.20158383       0.00950380       0.19651826        6 
H      -3.83032241      -0.69104788       0.75498073        1 
H      -3.05616502       0.90338297       0.80923070        1 
H      -3.72557642       0.29997727      -0.71976674        1 
