35
Lattice="0.0 0.0 0.0 0.0 0.0 0.0 0.0 0.0 0.0" Properties=species:S:1:pos:R:3:Z:I:1 pbc="F F F"
C      -0.29474225       0.46715636      -0.84737059        6 
C       0.18965524      -0.96548344      -0.43610179        6 
C       0.42786790       1.54948144      -0.01519678        6 
C       1.66116163      -1.17222535      -0.12546526        6 
O      -0.38289751       2.49158163       0.49786630        8 
O       1.62461400       1.56883324       0.18359333        8 
O       2.40352593      -0.66069029      -1.12912967        8 
O       2.12661403      -1.74650752       0.83444716        8 
C       3.81797506      -0.63471100      -0.89379317        6 
C       0.26888907       3.48712661       1.30505598        6 
C      -1.81383757       0.28332560      -0.50140434        6 
C      -2.37680669      -0.95520339      -1.28779769        6 
C      -1.97561497      -2.14096935      -0.37329243        6 
C      -0.95130965      -1.43838700       0.54342568        6 
O      -1.67271726      -0.22077156       0.84243918        8 
H      -0.09461672       0.66889856      -1.90412559        1 
H       0.09471305      -1.56708323      -1.35001305        1 
H       4.19247184      -1.63136016      -0.64518267        1 
H       1.01931400       4.02685975       0.72091269        1 
H      -3.46117027      -0.87229551      -1.39567514        1 
H      -1.95531167      -1.02703028      -2.29651540        1 
H      -2.82294015      -2.48293022       0.22888996        1 
H      -1.56202280      -2.99966261      -0.91229643        1 
H       4.26405503      -0.27543456      -1.82211824        1 
H       4.03641070       0.05460101      -0.07354584        1 
H       0.75726516       3.01801619       2.16330502        1 
H      -0.52484268       4.15957925       1.63198902        1 
C      -0.58193247      -2.14688888       1.82558203        6 
H      -1.49718560      -2.36903634       2.38475769        1 
H      -0.05278668      -3.07853966       1.61269807        1 
H       0.07463050      -1.52659877       2.43792658        1 
C      -2.77479622       1.45815109      -0.57093020        6 
H      -3.77698984       1.11079028      -0.29926925        1 
H      -2.49035335       2.26746017       0.09474364        1 
H      -2.81580343       1.84152604      -1.59716589        1 
