35
Lattice="0.0 0.0 0.0 0.0 0.0 0.0 0.0 0.0 0.0" Properties=species:S:1:pos:R:3:Z:I:1 pbc="F F F"
C      -0.38983846       0.79611255      -0.78028447        6 
C      -0.37480021      -0.76531858      -0.91563500        6 
C       0.88908411       1.60396180      -0.65408754        6 
C       0.90518477      -1.49008594      -0.52198422        6 
O       1.81234053       1.08304551       0.17585952        8 
O       1.03551096       2.66993823      -1.21737265        8 
O       1.15720789      -1.47262701       0.79847311        8 
O       1.62846645      -2.03251730      -1.33276522        8 
C       2.40698513      -2.05976965       1.18319673        6 
C       3.01152581       1.86289117       0.32335115        6 
C      -1.41624075       1.00762557       0.41326278        6 
C      -2.82397532       0.95679933      -0.22255342        6 
C      -2.88711326      -0.53088198      -0.66069439        6 
C      -1.59887847      -1.11859650      -0.00060841        6 
O      -1.38114999      -0.24029484       1.11391093        8 
H      -0.83435984       1.20938707      -1.68740509        1 
H      -0.54676958      -1.05461171      -1.95440437        1 
H       3.23574763      -1.52519413       0.70941178        1 
H       2.77697498       2.85391410       0.72112815        1 
H      -3.57001978       1.17407010       0.54805489        1 
H      -2.95623324       1.67111475      -1.04062458        1 
H      -3.77522894      -1.03152461      -0.26464148        1 
H      -2.88951462      -0.66237222      -1.74729241        1 
H       2.45450387      -1.95994730       2.26813226        1 
H       2.45181051      -3.11220784       0.88847727        1 
H       3.51384117       1.97736506      -0.64099229        1 
H       3.63609482       1.30373356       1.02055126        1 
C      -1.72745861      -2.55835214       0.45278633        6 
H      -2.59288653      -2.65991987       1.11522421        1 
H      -1.87430843      -3.21638445      -0.41075114        1 
H      -0.83773731      -2.88027283       0.99711793        1 
C      -1.13103970       2.15850098       1.35087456        6 
H      -1.90228174       2.21073282       2.12532041        1 
H      -0.16007915       2.01773347       1.83488012        1 
H      -1.11488349       3.10438861       0.80062464        1 
