36
Lattice="0.0 0.0 0.0 0.0 0.0 0.0 0.0 0.0 0.0" Properties=species:S:1:pos:R:3:Z:I:1 pbc="F F F"
C      -1.14557128      -0.79711403      -0.84936899        6 
C       0.26247261      -0.08726249      -0.78297212        6 
C      -2.27011306       0.04716208      -0.26853097        6 
C       0.21837177       1.31783907      -0.21577213        6 
O      -2.83923939      -0.49950516       0.81400541        8 
O      -2.62301268       1.09393696      -0.75900681        8 
O       0.51267008       2.22502692      -1.16307361        8 
O      -0.05630259       1.60472283       0.92554460        8 
C       0.42077560       3.60325975      -0.76086343        6 
C      -3.86765697       0.28223350       1.45171313        6 
C      -0.84203414      -2.12471869      -0.12148233        6 
C       0.07044416      -3.00365650      -1.00744477        6 
C       1.44597407      -2.29888170      -0.81911617        6 
C       1.05455195      -1.11808986       0.10192409        6 
O       0.03753190      -1.70192533       0.92877273        8 
H      -1.42030139      -0.95537828      -1.89468459        1 
H       0.70145724      -0.02241786      -1.77504002        1 
H       1.12975858       3.81527026       0.04113399        1 
H      -4.71802225       0.41488205       0.78079072        1 
H       0.09076575      -4.02776000      -0.63218193        1 
H      -0.26116699      -3.03372851      -2.04781615        1 
H       2.15643026      -2.94443982      -0.29934413        1 
H       1.90683981      -1.97106311      -1.75058208        1 
H       0.66411121       4.18072811      -1.64990153        1 
H      -0.59113533       3.82654700      -0.42037631        1 
H      -3.47165831       1.25762372       1.73539153        1 
H      -4.15670660      -0.28726412       2.33191608        1 
H      -1.70955442      -2.61868128       0.30547352        1 
C       2.15147347      -0.55682898       0.98042660        6 
O       3.03963304       0.16638341       0.14268415        8 
H       2.67360510      -1.38134804       1.48625832        1 
H       1.71226048       0.09724067       1.74102326        1 
C       4.04153974       0.85385019       0.86862091        6 
H       4.65074299       1.39454840       0.14406052        1 
H       4.68213983       0.15704609       1.42699197        1 
H       3.59726102       1.56777971       1.57520570        1 
